*SPEF "ieee 1481-1999"
*DESIGN "hp35_core"
*DATE "11:11:11 Fri 11 11, 1111"
*VENDOR "OpenRCX"
*PROGRAM "Parallel Extraction"
*VERSION "1.0"
*DESIGN_FLOW "NAME_SCOPE LOCAL" "PIN_CAP NONE"
*DIVIDER /
*DELIMITER :
*BUS_DELIMITER []
*T_UNIT 1 NS
*C_UNIT 1 PF
*R_UNIT 1 OHM
*L_UNIT 1 HENRY

*NAME_MAP
*1 COL[0]
*2 COL[1]
*3 COL[2]
*4 COL[3]
*5 COL[4]
*6 DD[0]
*7 DD[1]
*8 DD[2]
*9 DD[3]
*10 DD[4]
*11 PWO
*12 START
*13 bcd_bus
*14 bcd_in
*15 bcd_oen
*16 carry_bus
*17 carry_in
*18 carry_oen
*19 cdiv_rst
*20 dbg_arc_a1
*21 dbg_arc_b1
*22 dbg_arc_dummy
*23 dbg_arc_t1
*24 dbg_arc_t4
*25 dbg_ctc_kdn
*26 dbg_ctc_q[0]
*27 dbg_ctc_q[1]
*28 dbg_ctc_q[2]
*29 dbg_ctc_q[3]
*30 dbg_ctc_q[4]
*31 dbg_ctc_q[5]
*32 dbg_ctc_state1
*33 dbg_disable_arc
*34 dbg_disable_ctc
*35 dbg_disable_rom
*36 dbg_dsbf[0]
*37 dbg_dsbf[1]
*38 dbg_dsbf[2]
*39 dbg_dsbf[3]
*40 dbg_dsbf[4]
*41 dbg_force_data
*42 dbg_internal_cdiv
*43 dbg_rom_roe[0]
*44 dbg_rom_roe[1]
*45 dbg_rom_roe[2]
*46 dbg_romdata[0]
*47 dbg_romdata[1]
*48 dbg_romdata[2]
*49 dbg_romdata[3]
*50 dbg_romdata[4]
*51 dbg_romdata[5]
*52 dbg_romdata[6]
*53 dbg_romdata[7]
*54 dbg_romdata[8]
*55 dbg_romdata[9]
*56 dbg_sram_csb1
*57 ia_bus
*58 ia_in
*59 ia_oen
*60 is_bus
*61 is_in
*62 is_oen
*63 osc_in
*64 phi1_in
*65 phi1_out
*66 phi2_in
*67 phi2_out
*68 phi_oen
*69 sraddr_mux[0]
*70 sraddr_mux[1]
*71 sraddr_mux[2]
*72 sraddr_mux[3]
*73 sraddr_mux[4]
*74 sraddr_mux[5]
*75 sraddr_mux[6]
*76 sraddr_mux[7]
*77 sram_clk1
*78 srdata[0]
*79 srdata[10]
*80 srdata[11]
*81 srdata[12]
*82 srdata[13]
*83 srdata[14]
*84 srdata[15]
*85 srdata[16]
*86 srdata[17]
*87 srdata[18]
*88 srdata[19]
*89 srdata[1]
*90 srdata[20]
*91 srdata[21]
*92 srdata[22]
*93 srdata[23]
*94 srdata[24]
*95 srdata[25]
*96 srdata[26]
*97 srdata[27]
*98 srdata[28]
*99 srdata[29]
*100 srdata[2]
*101 srdata[3]
*102 srdata[4]
*103 srdata[5]
*104 srdata[6]
*105 srdata[7]
*106 srdata[8]
*107 srdata[9]
*108 sync_bus
*109 sync_in
*110 sync_oen
*113 ws_bus
*114 ws_in
*115 ws_oen
*116 _0000_
*117 _0001_
*118 _0002_
*119 _0003_
*120 _0004_
*121 _0005_
*122 _0006_
*123 _0007_
*124 _0008_
*125 _0009_
*126 _0010_
*127 _0011_
*128 _0012_
*129 _0013_
*130 _0014_
*131 _0015_
*132 _0016_
*133 _0017_
*134 _0018_
*135 _0019_
*136 _0020_
*137 _0021_
*138 _0022_
*139 _0023_
*140 _0024_
*141 _0025_
*142 _0026_
*143 _0027_
*144 _0028_
*145 _0029_
*146 _0030_
*147 _0031_
*148 _0032_
*149 _0033_
*150 _0034_
*151 _0035_
*152 _0036_
*153 _0037_
*154 _0038_
*155 _0039_
*156 _0040_
*157 _0041_
*158 _0042_
*159 _0043_
*160 _0044_
*161 _0045_
*162 _0046_
*163 _0047_
*164 _0048_
*165 _0049_
*166 _0050_
*167 _0051_
*168 _0052_
*169 _0053_
*170 _0054_
*171 _0055_
*172 _0056_
*173 _0057_
*174 _0058_
*175 _0059_
*176 _0060_
*177 _0061_
*178 _0062_
*179 _0063_
*180 _0064_
*181 _0065_
*182 _0066_
*183 _0067_
*184 _0068_
*185 _0069_
*186 _0070_
*187 _0071_
*188 _0072_
*189 _0073_
*190 _0074_
*191 _0075_
*192 _0076_
*193 _0077_
*194 _0078_
*195 _0079_
*196 _0080_
*197 _0081_
*198 _0082_
*199 _0083_
*200 _0084_
*201 _0085_
*202 _0086_
*203 _0087_
*204 _0088_
*205 _0089_
*206 _0090_
*207 _0091_
*208 _0092_
*209 _0093_
*210 _0094_
*211 _0095_
*212 _0096_
*213 _0097_
*214 _0098_
*215 _0099_
*216 _0100_
*217 _0101_
*218 _0102_
*219 _0103_
*220 _0104_
*221 _0105_
*222 _0106_
*223 _0107_
*224 _0108_
*225 _0109_
*226 _0110_
*227 _0111_
*228 _0112_
*229 _0113_
*230 _0114_
*231 _0115_
*232 _0116_
*233 _0117_
*234 _0118_
*235 _0119_
*236 _0120_
*237 _0121_
*238 _0122_
*239 _0123_
*240 _0124_
*241 _0125_
*242 _0126_
*243 _0127_
*244 _0128_
*245 _0129_
*246 _0130_
*247 _0131_
*248 _0132_
*249 _0133_
*250 _0134_
*251 _0135_
*252 _0136_
*253 _0137_
*254 _0138_
*255 _0139_
*256 _0140_
*257 _0141_
*258 _0142_
*259 _0143_
*260 _0144_
*261 _0145_
*262 _0146_
*263 _0147_
*264 _0148_
*265 _0149_
*266 _0150_
*267 _0151_
*268 _0152_
*269 _0153_
*270 _0154_
*271 _0155_
*272 _0156_
*273 _0157_
*274 _0158_
*275 _0159_
*276 _0160_
*277 _0161_
*278 _0162_
*279 _0163_
*280 _0164_
*281 _0165_
*282 _0166_
*283 _0167_
*284 _0168_
*285 _0169_
*286 _0170_
*287 _0171_
*288 _0172_
*289 _0173_
*290 _0174_
*291 _0175_
*292 _0176_
*293 _0177_
*294 _0178_
*295 _0179_
*296 _0180_
*297 _0181_
*298 _0182_
*299 _0183_
*300 _0184_
*301 _0185_
*302 _0186_
*303 _0187_
*304 _0188_
*305 _0189_
*306 _0190_
*307 _0191_
*308 _0192_
*309 _0193_
*310 _0194_
*311 _0195_
*312 _0196_
*313 _0197_
*314 _0198_
*315 _0199_
*316 _0200_
*317 _0201_
*318 _0202_
*319 _0203_
*320 _0204_
*321 _0205_
*322 _0206_
*323 _0207_
*324 _0208_
*325 _0209_
*326 _0210_
*327 _0211_
*328 _0212_
*329 _0213_
*330 _0214_
*331 _0215_
*332 _0216_
*333 _0217_
*334 _0218_
*335 _0219_
*336 _0220_
*337 _0221_
*338 _0222_
*339 _0223_
*340 _0224_
*341 _0225_
*342 _0226_
*343 _0227_
*344 _0228_
*345 _0229_
*346 _0230_
*347 _0231_
*348 _0232_
*349 _0233_
*350 _0234_
*351 _0235_
*352 _0236_
*353 _0237_
*354 _0238_
*355 _0239_
*356 _0240_
*357 _0241_
*358 _0242_
*359 _0243_
*360 _0244_
*361 _0245_
*362 _0246_
*363 _0247_
*364 _0248_
*365 _0249_
*366 _0250_
*367 _0251_
*368 _0252_
*369 _0253_
*370 _0254_
*371 _0255_
*372 _0256_
*373 _0257_
*374 _0258_
*375 _0259_
*376 _0260_
*377 _0261_
*378 _0262_
*379 _0263_
*380 _0264_
*381 _0265_
*382 _0266_
*383 _0267_
*384 _0268_
*385 _0269_
*386 _0270_
*387 _0271_
*388 _0272_
*389 _0273_
*390 _0274_
*391 _0275_
*392 _0276_
*393 _0277_
*394 _0278_
*395 _0279_
*396 _0280_
*397 _0281_
*398 _0282_
*399 _0283_
*400 _0284_
*401 _0285_
*402 _0286_
*403 _0287_
*404 _0288_
*405 _0289_
*406 _0290_
*407 _0291_
*408 _0292_
*409 _0293_
*410 _0294_
*411 _0295_
*412 _0296_
*413 _0297_
*414 _0298_
*415 _0299_
*416 _0300_
*417 _0301_
*418 _0302_
*419 _0303_
*420 _0304_
*421 _0305_
*422 _0306_
*423 _0307_
*424 _0308_
*425 _0309_
*426 _0310_
*427 _0311_
*428 _0312_
*429 _0313_
*430 _0314_
*431 _0315_
*432 _0316_
*433 _0317_
*434 _0318_
*435 _0319_
*436 _0320_
*437 _0321_
*438 _0322_
*439 _0323_
*440 _0324_
*441 _0325_
*442 _0326_
*443 _0327_
*444 _0328_
*445 _0329_
*446 _0330_
*447 _0331_
*448 _0332_
*449 _0333_
*450 _0334_
*451 _0335_
*452 _0336_
*453 _0337_
*454 _0338_
*455 _0339_
*456 _0340_
*457 _0341_
*458 _0342_
*459 _0343_
*460 _0344_
*461 _0345_
*462 _0346_
*463 _0347_
*464 _0348_
*465 _0349_
*466 _0350_
*467 _0351_
*468 _0352_
*469 _0353_
*470 _0354_
*471 _0355_
*472 _0356_
*473 _0357_
*474 _0358_
*475 _0359_
*476 _0360_
*477 _0361_
*478 _0362_
*479 _0363_
*480 _0364_
*481 _0365_
*482 _0366_
*483 _0367_
*484 _0368_
*485 _0369_
*486 _0370_
*487 _0371_
*488 _0372_
*489 _0373_
*490 _0374_
*491 _0375_
*492 _0376_
*493 _0377_
*494 _0378_
*495 _0379_
*496 _0380_
*497 _0381_
*498 _0382_
*499 _0383_
*500 _0384_
*501 _0385_
*502 _0386_
*503 _0387_
*504 _0388_
*505 _0389_
*506 _0390_
*507 _0391_
*508 _0392_
*509 _0393_
*510 _0394_
*511 _0395_
*512 _0396_
*513 _0397_
*514 _0398_
*515 _0399_
*516 _0400_
*517 _0401_
*518 _0402_
*519 _0403_
*520 _0404_
*521 _0405_
*522 _0406_
*523 _0407_
*524 _0408_
*525 _0409_
*526 _0410_
*527 _0411_
*528 _0412_
*529 _0413_
*530 _0414_
*531 _0415_
*532 _0416_
*533 _0417_
*534 _0418_
*535 _0419_
*536 _0420_
*537 _0421_
*538 _0422_
*539 _0423_
*540 _0424_
*541 _0425_
*542 _0426_
*543 _0427_
*544 _0428_
*545 _0429_
*546 _0430_
*547 _0431_
*548 _0432_
*549 _0433_
*550 _0434_
*551 _0435_
*552 _0436_
*553 _0437_
*554 _0438_
*555 _0439_
*556 _0440_
*557 _0441_
*558 _0442_
*559 _0443_
*560 _0444_
*561 _0445_
*562 _0446_
*563 _0447_
*564 _0448_
*565 _0449_
*566 _0450_
*567 _0451_
*568 _0452_
*569 _0453_
*570 _0454_
*571 _0455_
*572 _0456_
*573 _0457_
*574 _0458_
*575 _0459_
*576 _0460_
*577 _0461_
*578 _0462_
*579 _0463_
*580 _0464_
*581 _0465_
*582 _0466_
*583 _0467_
*584 _0468_
*585 _0469_
*586 _0470_
*587 _0471_
*588 _0472_
*589 _0473_
*590 _0474_
*591 _0475_
*592 _0476_
*593 _0477_
*594 _0478_
*595 _0479_
*596 _0480_
*597 _0481_
*598 _0482_
*599 _0483_
*600 _0484_
*601 _0485_
*602 _0486_
*603 _0487_
*604 _0488_
*605 _0489_
*606 _0490_
*607 _0491_
*608 _0492_
*609 _0493_
*610 _0494_
*611 _0495_
*612 _0496_
*613 _0497_
*614 _0498_
*615 _0499_
*616 _0500_
*617 _0501_
*618 _0502_
*619 _0503_
*620 _0504_
*621 _0505_
*622 _0506_
*623 _0507_
*624 _0508_
*625 _0509_
*626 _0510_
*627 _0511_
*628 _0512_
*629 _0513_
*630 _0514_
*631 _0515_
*632 _0516_
*633 _0517_
*634 _0518_
*635 _0519_
*636 _0520_
*637 _0521_
*638 _0522_
*639 _0523_
*640 _0524_
*641 _0525_
*642 _0526_
*643 _0527_
*644 _0528_
*645 _0529_
*646 _0530_
*647 _0531_
*648 _0532_
*649 _0533_
*650 _0534_
*651 _0535_
*652 _0536_
*653 _0537_
*654 _0538_
*655 _0539_
*656 _0540_
*657 _0541_
*658 _0542_
*659 _0543_
*660 _0544_
*661 _0545_
*662 _0546_
*663 _0547_
*664 _0548_
*665 _0549_
*666 _0550_
*667 _0551_
*668 _0552_
*669 _0553_
*670 _0554_
*671 _0555_
*672 _0556_
*673 _0557_
*674 _0558_
*675 _0559_
*676 _0560_
*677 _0561_
*678 _0562_
*679 _0563_
*680 _0564_
*681 _0565_
*682 _0566_
*683 _0567_
*684 _0568_
*685 _0569_
*686 _0570_
*687 _0571_
*688 _0572_
*689 _0573_
*690 _0574_
*691 _0575_
*692 _0576_
*693 _0577_
*694 _0578_
*695 _0579_
*696 _0580_
*697 _0581_
*698 _0582_
*699 _0583_
*700 _0584_
*701 _0585_
*702 _0586_
*703 _0587_
*704 _0588_
*705 _0589_
*706 _0590_
*707 _0591_
*708 _0592_
*709 _0593_
*710 _0594_
*711 _0595_
*712 _0596_
*713 _0597_
*714 _0598_
*715 _0599_
*716 _0600_
*717 _0601_
*718 _0602_
*719 _0603_
*720 _0604_
*721 _0605_
*722 _0606_
*723 _0607_
*724 _0608_
*725 _0609_
*726 _0610_
*727 _0611_
*728 _0612_
*729 _0613_
*730 _0614_
*731 _0615_
*732 _0616_
*733 _0617_
*734 _0618_
*735 _0619_
*736 _0620_
*737 _0621_
*738 _0622_
*739 _0623_
*740 _0624_
*741 _0625_
*742 _0626_
*743 _0627_
*744 _0628_
*745 _0629_
*746 _0630_
*747 _0631_
*748 _0632_
*749 _0633_
*750 _0634_
*751 _0635_
*752 _0636_
*753 _0637_
*754 _0638_
*755 _0639_
*756 _0640_
*757 _0641_
*758 _0642_
*759 _0643_
*760 _0644_
*761 _0645_
*762 _0646_
*763 _0647_
*764 _0648_
*765 _0649_
*766 _0650_
*767 _0651_
*768 _0652_
*769 _0653_
*770 _0654_
*771 _0655_
*772 _0656_
*773 _0657_
*774 _0658_
*775 _0659_
*776 _0660_
*777 _0661_
*778 _0662_
*779 _0663_
*780 _0664_
*781 _0665_
*782 _0666_
*783 _0667_
*784 _0668_
*785 _0669_
*786 _0670_
*787 _0671_
*788 _0672_
*789 _0673_
*790 _0674_
*791 _0675_
*792 _0676_
*793 _0677_
*794 _0678_
*795 _0679_
*796 _0680_
*797 _0681_
*798 _0682_
*799 _0683_
*800 _0684_
*801 _0685_
*802 _0686_
*803 _0687_
*804 _0688_
*805 _0689_
*806 _0690_
*807 _0691_
*808 _0692_
*809 _0693_
*810 _0694_
*811 _0695_
*812 _0696_
*813 _0697_
*814 _0698_
*815 _0699_
*816 _0700_
*817 _0701_
*818 _0702_
*819 _0703_
*820 _0704_
*821 _0705_
*822 _0706_
*823 _0707_
*824 _0708_
*825 _0709_
*826 _0710_
*827 _0711_
*828 _0712_
*829 _0713_
*830 _0714_
*831 _0715_
*832 _0716_
*833 _0717_
*834 _0718_
*835 _0719_
*836 _0720_
*837 _0721_
*838 _0722_
*839 _0723_
*840 _0724_
*841 _0725_
*842 _0726_
*843 _0727_
*844 _0728_
*845 _0729_
*846 _0730_
*847 _0731_
*848 _0732_
*849 _0733_
*850 _0734_
*851 _0735_
*852 _0736_
*853 _0737_
*854 _0738_
*855 _0739_
*856 _0740_
*857 _0741_
*858 _0742_
*859 _0743_
*860 _0744_
*861 _0745_
*862 _0746_
*863 _0747_
*864 _0748_
*865 _0749_
*866 _0750_
*867 _0751_
*868 _0752_
*869 _0753_
*870 _0754_
*871 _0755_
*872 _0756_
*873 _0757_
*874 _0758_
*875 _0759_
*876 _0760_
*877 _0761_
*878 _0762_
*879 _0763_
*880 _0764_
*881 _0765_
*882 _0766_
*883 _0767_
*884 _0768_
*885 _0769_
*886 _0770_
*887 _0771_
*888 _0772_
*889 _0773_
*890 _0774_
*891 _0775_
*892 _0776_
*893 _0777_
*894 _0778_
*895 _0779_
*896 _0780_
*897 _0781_
*898 _0782_
*899 _0783_
*900 _0784_
*901 _0785_
*902 _0786_
*903 _0787_
*904 _0788_
*905 _0789_
*906 _0790_
*907 _0791_
*908 _0792_
*909 _0793_
*910 _0794_
*911 _0795_
*912 _0796_
*913 _0797_
*914 _0798_
*915 _0799_
*916 _0800_
*917 _0801_
*918 _0802_
*919 _0803_
*920 _0804_
*921 _0805_
*922 _0806_
*923 _0807_
*924 _0808_
*925 _0809_
*926 _0810_
*927 _0811_
*928 _0812_
*929 _0813_
*930 _0814_
*931 _0815_
*932 _0816_
*933 _0817_
*934 _0818_
*935 _0819_
*936 _0820_
*937 _0821_
*938 _0822_
*939 _0823_
*940 _0824_
*941 _0825_
*942 _0826_
*943 _0827_
*944 _0828_
*945 _0829_
*946 _0830_
*947 _0831_
*948 _0832_
*949 _0833_
*950 _0834_
*951 _0835_
*952 _0836_
*953 _0837_
*954 _0838_
*955 _0839_
*956 _0840_
*957 _0841_
*958 _0842_
*959 _0843_
*960 _0844_
*961 _0845_
*962 _0846_
*963 _0847_
*964 _0848_
*965 _0849_
*966 _0850_
*967 _0851_
*968 _0852_
*969 _0853_
*970 _0854_
*971 _0855_
*972 _0856_
*973 _0857_
*974 _0858_
*975 _0859_
*976 _0860_
*977 _0861_
*978 _0862_
*979 _0863_
*980 _0864_
*981 _0865_
*982 _0866_
*983 _0867_
*984 _0868_
*985 _0869_
*986 _0870_
*987 _0871_
*988 _0872_
*989 _0873_
*990 _0874_
*991 _0875_
*992 _0876_
*993 _0877_
*994 _0878_
*995 _0879_
*996 _0880_
*997 _0881_
*998 _0882_
*999 _0883_
*1000 _0884_
*1001 _0885_
*1002 _0886_
*1003 _0887_
*1004 _0888_
*1005 _0889_
*1006 _0890_
*1007 _0891_
*1008 _0892_
*1009 _0893_
*1010 _0894_
*1011 _0895_
*1012 _0896_
*1013 _0897_
*1014 _0898_
*1015 _0899_
*1016 _0900_
*1017 _0901_
*1018 _0902_
*1019 _0903_
*1020 _0904_
*1021 _0905_
*1022 _0906_
*1023 _0907_
*1024 _0908_
*1025 _0909_
*1026 _0910_
*1027 _0911_
*1028 _0912_
*1029 _0913_
*1030 _0914_
*1031 _0915_
*1032 _0916_
*1033 _0917_
*1034 _0918_
*1035 _0919_
*1036 _0920_
*1037 _0921_
*1038 _0922_
*1039 _0923_
*1040 _0924_
*1041 _0925_
*1042 _0926_
*1043 _0927_
*1044 _0928_
*1045 _0929_
*1046 _0930_
*1047 _0931_
*1048 _0932_
*1049 _0933_
*1050 _0934_
*1051 _0935_
*1052 _0936_
*1053 _0937_
*1054 _0938_
*1055 _0939_
*1056 _0940_
*1057 _0941_
*1058 _0942_
*1059 _0943_
*1060 _0944_
*1061 _0945_
*1062 _0946_
*1063 _0947_
*1064 _0948_
*1065 _0949_
*1066 _0950_
*1067 _0951_
*1068 _0952_
*1069 _0953_
*1070 _0954_
*1071 _0955_
*1072 _0956_
*1073 _0957_
*1074 _0958_
*1075 _0959_
*1076 _0960_
*1077 _0961_
*1078 _0962_
*1079 _0963_
*1080 _0964_
*1081 _0965_
*1082 _0966_
*1083 _0967_
*1084 _0968_
*1085 _0969_
*1086 _0970_
*1087 _0971_
*1088 _0972_
*1089 _0973_
*1090 _0974_
*1091 _0975_
*1092 _0976_
*1093 _0977_
*1094 _0978_
*1095 _0979_
*1096 _0980_
*1097 _0981_
*1098 _0982_
*1099 _0983_
*1100 _0984_
*1101 _0985_
*1102 _0986_
*1103 _0987_
*1104 _0988_
*1105 _0989_
*1106 _0990_
*1107 _0991_
*1108 _0992_
*1109 _0993_
*1110 _0994_
*1111 _0995_
*1112 _0996_
*1113 _0997_
*1114 _0998_
*1115 _0999_
*1116 _1000_
*1117 _1001_
*1118 _1002_
*1119 _1003_
*1120 _1004_
*1121 _1005_
*1122 _1006_
*1123 _1007_
*1124 _1008_
*1125 _1009_
*1126 _1010_
*1127 _1011_
*1128 _1012_
*1129 _1013_
*1130 _1014_
*1131 _1015_
*1132 _1016_
*1133 _1017_
*1134 _1018_
*1135 _1019_
*1136 _1020_
*1137 _1021_
*1138 _1022_
*1139 _1023_
*1140 _1024_
*1141 _1025_
*1142 _1026_
*1143 _1027_
*1144 _1028_
*1145 _1029_
*1146 _1030_
*1147 _1031_
*1148 _1032_
*1149 _1033_
*1150 _1034_
*1151 _1035_
*1152 _1036_
*1153 _1037_
*1154 _1038_
*1155 _1039_
*1156 _1040_
*1157 _1041_
*1158 _1042_
*1159 _1043_
*1160 _1044_
*1161 _1045_
*1162 _1046_
*1163 _1047_
*1164 _1048_
*1165 _1049_
*1166 _1050_
*1167 _1051_
*1168 _1052_
*1169 _1053_
*1170 _1054_
*1171 _1055_
*1172 _1056_
*1173 _1057_
*1174 _1058_
*1175 _1059_
*1176 _1060_
*1177 _1061_
*1178 _1062_
*1179 _1063_
*1180 _1064_
*1181 _1065_
*1182 _1066_
*1183 _1067_
*1184 _1068_
*1185 _1069_
*1186 _1070_
*1187 _1071_
*1188 _1072_
*1189 _1073_
*1190 _1074_
*1191 _1075_
*1192 _1076_
*1193 _1077_
*1194 _1078_
*1195 _1079_
*1196 _1080_
*1197 _1081_
*1198 _1082_
*1199 _1083_
*1200 _1084_
*1201 _1085_
*1202 _1086_
*1203 _1087_
*1204 _1088_
*1205 _1089_
*1206 _1090_
*1207 _1091_
*1208 _1092_
*1209 _1093_
*1210 _1094_
*1211 _1095_
*1212 _1096_
*1213 _1097_
*1214 _1098_
*1215 _1099_
*1216 _1100_
*1217 _1101_
*1218 _1102_
*1219 _1103_
*1220 _1104_
*1221 _1105_
*1222 _1106_
*1223 _1107_
*1224 _1108_
*1225 _1109_
*1226 _1110_
*1227 _1111_
*1228 _1112_
*1229 _1113_
*1230 _1114_
*1231 _1115_
*1232 _1116_
*1233 _1117_
*1234 _1118_
*1235 _1119_
*1236 _1120_
*1237 _1121_
*1238 _1122_
*1239 _1123_
*1240 _1124_
*1241 _1125_
*1242 _1126_
*1243 _1127_
*1244 _1128_
*1245 _1129_
*1246 _1130_
*1247 _1131_
*1248 _1132_
*1249 _1133_
*1250 _1134_
*1251 _1135_
*1252 _1136_
*1253 _1137_
*1254 _1138_
*1255 _1139_
*1256 _1140_
*1257 _1141_
*1258 _1142_
*1259 _1143_
*1260 _1144_
*1261 _1145_
*1262 _1146_
*1263 _1147_
*1264 _1148_
*1265 _1149_
*1266 _1150_
*1267 _1151_
*1268 _1152_
*1269 _1153_
*1270 _1154_
*1271 _1155_
*1272 _1156_
*1273 _1157_
*1274 _1158_
*1275 _1159_
*1276 _1160_
*1277 _1161_
*1278 _1162_
*1279 _1163_
*1280 _1164_
*1281 _1165_
*1282 _1166_
*1283 _1167_
*1284 _1168_
*1285 _1169_
*1286 _1170_
*1287 _1171_
*1288 _1172_
*1289 _1173_
*1290 _1174_
*1291 _1175_
*1292 _1176_
*1293 _1177_
*1294 _1178_
*1295 _1179_
*1296 _1180_
*1297 _1181_
*1298 _1182_
*1299 _1183_
*1300 _1184_
*1301 _1185_
*1302 _1186_
*1303 _1187_
*1304 _1188_
*1305 _1189_
*1306 _1190_
*1307 _1191_
*1308 _1192_
*1309 _1193_
*1310 _1194_
*1311 _1195_
*1312 _1196_
*1313 _1197_
*1314 _1198_
*1315 _1199_
*1316 _1200_
*1317 _1201_
*1318 _1202_
*1319 _1203_
*1320 _1204_
*1321 _1205_
*1322 _1206_
*1323 _1207_
*1324 _1208_
*1325 _1209_
*1326 _1210_
*1327 _1211_
*1328 _1212_
*1329 _1213_
*1330 _1214_
*1331 _1215_
*1332 _1216_
*1333 _1217_
*1334 _1218_
*1335 _1219_
*1336 _1220_
*1337 _1221_
*1338 _1222_
*1339 _1223_
*1340 _1224_
*1341 _1225_
*1342 _1226_
*1343 _1227_
*1344 _1228_
*1345 _1229_
*1346 _1230_
*1347 _1231_
*1348 _1232_
*1349 _1233_
*1350 _1234_
*1351 _1235_
*1352 _1236_
*1353 _1237_
*1354 _1238_
*1355 _1239_
*1356 _1240_
*1357 _1241_
*1358 _1242_
*1359 _1243_
*1360 _1244_
*1361 _1245_
*1362 _1246_
*1363 _1247_
*1364 _1248_
*1365 _1249_
*1366 _1250_
*1367 _1251_
*1368 _1252_
*1369 _1253_
*1370 _1254_
*1371 _1255_
*1372 _1256_
*1373 _1257_
*1374 _1258_
*1375 _1259_
*1376 _1260_
*1377 _1261_
*1378 _1262_
*1379 _1263_
*1380 _1264_
*1381 _1265_
*1382 _1266_
*1383 _1267_
*1384 _1268_
*1385 _1269_
*1386 _1270_
*1387 _1271_
*1388 _1272_
*1389 _1273_
*1390 _1274_
*1391 _1275_
*1392 _1276_
*1393 _1277_
*1394 _1278_
*1395 _1279_
*1396 _1280_
*1397 _1281_
*1398 _1282_
*1399 _1283_
*1400 _1284_
*1401 _1285_
*1402 _1286_
*1403 _1287_
*1404 _1288_
*1405 _1289_
*1406 _1290_
*1407 _1291_
*1408 _1292_
*1409 _1293_
*1410 _1294_
*1411 _1295_
*1412 _1296_
*1413 _1297_
*1414 _1298_
*1415 _1299_
*1416 _1300_
*1417 _1301_
*1418 _1302_
*1419 _1303_
*1420 _1304_
*1421 _1305_
*1422 _1306_
*1423 _1307_
*1424 _1308_
*1425 _1309_
*1426 _1310_
*1427 _1311_
*1428 _1312_
*1429 _1313_
*1430 _1314_
*1431 _1315_
*1432 _1316_
*1433 _1317_
*1434 _1318_
*1435 _1319_
*1436 _1320_
*1437 _1321_
*1438 _1322_
*1439 _1323_
*1440 _1324_
*1441 _1325_
*1442 _1326_
*1443 _1327_
*1444 _1328_
*1445 _1329_
*1446 _1330_
*1447 _1331_
*1448 _1332_
*1449 _1333_
*1450 _1334_
*1451 _1335_
*1452 _1336_
*1453 _1337_
*1454 _1338_
*1455 _1339_
*1456 _1340_
*1457 _1341_
*1458 _1342_
*1459 _1343_
*1460 _1344_
*1461 _1345_
*1462 _1346_
*1463 _1347_
*1464 _1348_
*1465 _1349_
*1466 _1350_
*1467 _1351_
*1468 _1352_
*1469 _1353_
*1470 _1354_
*1471 _1355_
*1472 _1356_
*1473 _1357_
*1474 _1358_
*1475 _1359_
*1476 _1360_
*1477 _1361_
*1478 _1362_
*1479 _1363_
*1480 _1364_
*1481 _1365_
*1482 _1366_
*1483 _1367_
*1484 _1368_
*1485 _1369_
*1486 _1370_
*1487 _1371_
*1488 _1372_
*1489 _1373_
*1490 _1374_
*1491 _1375_
*1492 _1376_
*1493 _1377_
*1494 _1378_
*1495 _1379_
*1496 _1380_
*1497 _1381_
*1498 _1382_
*1499 _1383_
*1500 _1384_
*1501 _1385_
*1502 _1386_
*1503 _1387_
*1504 _1388_
*1505 _1389_
*1506 _1390_
*1507 _1391_
*1508 _1392_
*1509 _1393_
*1510 _1394_
*1511 _1395_
*1512 _1396_
*1513 _1397_
*1514 _1398_
*1515 _1399_
*1516 _1400_
*1517 _1401_
*1518 _1402_
*1519 _1403_
*1520 _1404_
*1521 _1405_
*1522 _1406_
*1523 _1407_
*1524 _1408_
*1525 _1409_
*1526 _1410_
*1527 _1411_
*1528 _1412_
*1529 _1413_
*1530 _1414_
*1531 _1415_
*1532 _1416_
*1533 _1417_
*1534 _1418_
*1535 _1419_
*1536 _1420_
*1537 _1421_
*1538 _1422_
*1539 _1423_
*1540 _1424_
*1541 _1425_
*1542 _1426_
*1543 _1427_
*1544 _1428_
*1545 _1429_
*1546 _1430_
*1547 _1431_
*1548 _1432_
*1549 _1433_
*1550 _1434_
*1551 _1435_
*1552 _1436_
*1553 _1437_
*1554 _1438_
*1555 _1439_
*1556 _1440_
*1557 _1441_
*1558 _1442_
*1559 _1443_
*1560 _1444_
*1561 _1445_
*1562 _1446_
*1563 _1447_
*1564 _1448_
*1565 _1449_
*1566 _1450_
*1567 _1451_
*1568 _1452_
*1569 _1453_
*1570 _1454_
*1571 _1455_
*1572 _1456_
*1573 _1457_
*1574 _1458_
*1575 _1459_
*1576 _1460_
*1577 _1461_
*1578 _1462_
*1579 _1463_
*1580 _1464_
*1581 _1465_
*1582 _1466_
*1583 _1467_
*1584 _1468_
*1585 _1469_
*1586 _1470_
*1587 _1471_
*1588 _1472_
*1589 _1473_
*1590 _1474_
*1591 _1475_
*1592 _1476_
*1593 _1477_
*1594 _1478_
*1595 _1479_
*1596 _1480_
*1597 _1481_
*1598 _1482_
*1599 _1483_
*1600 _1484_
*1601 _1485_
*1602 _1486_
*1603 _1487_
*1604 _1488_
*1605 _1489_
*1606 _1490_
*1607 _1491_
*1608 _1492_
*1609 _1493_
*1610 _1494_
*1611 _1495_
*1612 _1496_
*1613 _1497_
*1614 _1498_
*1615 _1499_
*1616 _1500_
*1617 _1501_
*1618 _1502_
*1619 _1503_
*1620 _1504_
*1621 _1505_
*1622 _1506_
*1623 _1507_
*1624 _1508_
*1625 _1509_
*1626 _1510_
*1627 _1511_
*1628 _1512_
*1629 _1513_
*1630 _1514_
*1631 _1515_
*1632 _1516_
*1633 _1517_
*1634 _1518_
*1635 _1519_
*1636 _1520_
*1637 _1521_
*1638 _1522_
*1639 _1523_
*1640 _1524_
*1641 _1525_
*1642 _1526_
*1643 _1527_
*1644 _1528_
*1645 _1529_
*1646 _1530_
*1647 _1531_
*1648 _1532_
*1649 _1533_
*1650 _1534_
*1651 _1535_
*1652 _1536_
*1653 _1537_
*1654 _1538_
*1655 _1539_
*1656 _1540_
*1657 _1541_
*1658 _1542_
*1659 _1543_
*1660 _1544_
*1661 _1545_
*1662 _1546_
*1663 _1547_
*1664 _1548_
*1665 _1549_
*1666 _1550_
*1667 _1551_
*1668 _1552_
*1669 _1553_
*1670 _1554_
*1671 _1555_
*1672 _1556_
*1673 _1557_
*1674 _1558_
*1675 _1559_
*1676 _1560_
*1677 _1561_
*1678 _1562_
*1679 _1563_
*1680 _1564_
*1681 _1565_
*1682 _1566_
*1683 _1567_
*1684 _1568_
*1685 _1569_
*1686 _1570_
*1687 _1571_
*1688 _1572_
*1689 _1573_
*1690 _1574_
*1691 _1575_
*1692 _1576_
*1693 _1577_
*1694 _1578_
*1695 _1579_
*1696 _1580_
*1697 _1581_
*1698 _1582_
*1699 _1583_
*1700 _1584_
*1701 _1585_
*1702 _1586_
*1703 _1587_
*1704 _1588_
*1705 _1589_
*1706 _1590_
*1707 _1591_
*1708 _1592_
*1709 _1593_
*1710 _1594_
*1711 _1595_
*1712 _1596_
*1713 _1597_
*1714 _1598_
*1715 _1599_
*1716 _1600_
*1717 _1601_
*1718 _1602_
*1719 _1603_
*1720 _1604_
*1721 _1605_
*1722 _1606_
*1723 _1607_
*1724 _1608_
*1725 _1609_
*1726 _1610_
*1727 _1611_
*1728 _1612_
*1729 _1613_
*1730 _1614_
*1731 _1615_
*1732 _1616_
*1733 _1617_
*1734 _1618_
*1735 _1619_
*1736 _1620_
*1737 _1621_
*1738 _1622_
*1739 _1623_
*1740 _1624_
*1741 _1625_
*1742 _1626_
*1743 _1627_
*1744 _1628_
*1745 _1629_
*1746 _1630_
*1747 _1631_
*1748 _1632_
*1749 _1633_
*1750 _1634_
*1751 _1635_
*1752 _1636_
*1753 _1637_
*1754 _1638_
*1755 _1639_
*1756 _1640_
*1757 _1641_
*1758 _1642_
*1759 _1643_
*1760 _1644_
*1761 _1645_
*1762 _1646_
*1763 _1647_
*1764 _1648_
*1765 _1649_
*1766 _1650_
*1767 _1651_
*1768 _1652_
*1769 _1653_
*1770 _1654_
*1771 _1655_
*1772 _1656_
*1773 _1657_
*1774 _1658_
*1775 _1659_
*1776 _1660_
*1777 _1661_
*1778 _1662_
*1779 _1663_
*1780 _1664_
*1781 _1665_
*1782 _1666_
*1783 _1667_
*1784 _1668_
*1785 _1669_
*1786 _1670_
*1787 _1671_
*1788 _1672_
*1789 _1673_
*1790 _1674_
*1791 _1675_
*1792 _1676_
*1793 _1677_
*1794 _1678_
*1795 _1679_
*1796 _1680_
*1797 _1681_
*1798 _1682_
*1799 _1683_
*1800 _1684_
*1801 _1685_
*1802 _1686_
*1803 _1687_
*1804 _1688_
*1805 _1689_
*1806 _1690_
*1807 _1691_
*1808 _1692_
*1809 _1693_
*1810 _1694_
*1811 _1695_
*1812 _1696_
*1813 _1697_
*1814 _1698_
*1815 _1699_
*1816 _1700_
*1817 _1701_
*1818 _1702_
*1819 _1703_
*1820 _1704_
*1821 _1705_
*1822 _1706_
*1823 _1707_
*1824 _1708_
*1825 _1709_
*1826 _1710_
*1827 _1711_
*1828 _1712_
*1829 _1713_
*1830 _1714_
*1831 _1715_
*1832 _1716_
*1833 _1717_
*1834 _1718_
*1835 _1719_
*1836 _1720_
*1837 _1721_
*1838 _1722_
*1839 _1723_
*1840 _1724_
*1841 _1725_
*1842 _1726_
*1843 _1727_
*1844 _1728_
*1845 _1729_
*1846 _1730_
*1847 _1731_
*1848 _1732_
*1849 _1733_
*1850 _1734_
*1851 _1735_
*1852 _1736_
*1853 _1737_
*1854 _1738_
*1855 _1739_
*1856 _1740_
*1857 _1741_
*1858 _1742_
*1859 _1743_
*1860 _1744_
*1861 _1745_
*1862 _1746_
*1863 _1747_
*1864 _1748_
*1865 _1749_
*1866 _1750_
*1867 _1751_
*1868 _1752_
*1869 _1753_
*1870 _1754_
*1871 _1755_
*1872 _1756_
*1873 _1757_
*1874 _1758_
*1875 _1759_
*1876 _1760_
*1877 _1761_
*1878 _1762_
*1879 _1763_
*1880 _1764_
*1881 _1765_
*1882 _1766_
*1883 _1767_
*1884 _1768_
*1885 _1769_
*1886 _1770_
*1887 _1771_
*1888 _1772_
*1889 _1773_
*1890 _1774_
*1891 _1775_
*1892 _1776_
*1893 _1777_
*1894 _1778_
*1895 _1779_
*1896 _1780_
*1897 _1781_
*1898 _1782_
*1899 _1783_
*1900 _1784_
*1901 _1785_
*1902 _1786_
*1903 _1787_
*1904 _1788_
*1905 _1789_
*1906 _1790_
*1907 _1791_
*1908 _1792_
*1909 _1793_
*1910 _1794_
*1911 _1795_
*1912 _1796_
*1913 _1797_
*1914 _1798_
*1915 _1799_
*1916 _1800_
*1917 _1801_
*1918 _1802_
*1919 _1803_
*1920 _1804_
*1921 _1805_
*1922 _1806_
*1923 _1807_
*1924 _1808_
*1925 _1809_
*1926 _1810_
*1927 _1811_
*1928 _1812_
*1929 _1813_
*1930 _1814_
*1931 _1815_
*1932 _1816_
*1933 _1817_
*1934 _1818_
*1935 _1819_
*1936 _1820_
*1937 _1821_
*1938 _1822_
*1939 _1823_
*1940 _1824_
*1941 _1825_
*1942 _1826_
*1943 _1827_
*1944 _1828_
*1945 _1829_
*1946 _1830_
*1947 _1831_
*1948 _1832_
*1949 _1833_
*1950 _1834_
*1951 _1835_
*1952 _1836_
*1953 _1837_
*1954 _1838_
*1955 _1839_
*1956 _1840_
*1957 _1841_
*1958 _1842_
*1959 _1843_
*1960 _1844_
*1961 _1845_
*1962 _1846_
*1963 _1847_
*1964 _1848_
*1965 _1849_
*1966 _1850_
*1967 _1851_
*1968 _1852_
*1969 _1853_
*1970 _1854_
*1971 _1855_
*1972 _1856_
*1973 _1857_
*1974 _1858_
*1975 _1859_
*1976 _1860_
*1977 _1861_
*1978 _1862_
*1979 _1863_
*1980 _1864_
*1981 _1865_
*1982 _1866_
*1983 _1867_
*1984 _1868_
*1985 _1869_
*1986 _1870_
*1987 _1871_
*1988 _1872_
*1989 _1873_
*1990 _1874_
*1991 _1875_
*1992 _1876_
*1993 _1877_
*1994 _1878_
*1995 _1879_
*1996 _1880_
*1997 _1881_
*1998 _1882_
*1999 _1883_
*2000 _1884_
*2001 _1885_
*2002 _1886_
*2003 _1887_
*2004 _1888_
*2005 _1889_
*2006 _1890_
*2007 _1891_
*2008 _1892_
*2009 _1893_
*2010 _1894_
*2011 _1895_
*2012 _1896_
*2013 _1897_
*2014 _1898_
*2015 _1899_
*2016 _1900_
*2017 _1901_
*2018 _1902_
*2019 _1903_
*2020 _1904_
*2021 _1905_
*2022 _1906_
*2023 _1907_
*2024 _1908_
*2025 _1909_
*2026 _1910_
*2027 _1911_
*2028 _1912_
*2029 _1913_
*2030 _1914_
*2031 _1915_
*2032 _1916_
*2033 _1917_
*2034 _1918_
*2035 _1919_
*2036 _1920_
*2037 _1921_
*2038 _1922_
*2039 _1923_
*2040 _1924_
*2041 _1925_
*2042 _1926_
*2043 _1927_
*2044 _1928_
*2045 _1929_
*2046 _1930_
*2047 _1931_
*2048 _1932_
*2049 _1933_
*2050 _1934_
*2051 _1935_
*2052 _1936_
*2053 _1937_
*2054 _1938_
*2055 _1939_
*2056 _1940_
*2057 _1941_
*2058 _1942_
*2059 _1943_
*2060 _1944_
*2061 _1945_
*2062 _1946_
*2063 _1947_
*2064 _1948_
*2065 _1949_
*2066 _1950_
*2067 _1951_
*2068 _1952_
*2069 _1953_
*2070 _1954_
*2071 _1955_
*2072 _1956_
*2073 _1957_
*2074 _1958_
*2075 _1959_
*2076 _1960_
*2077 _1961_
*2078 _1962_
*2079 _1963_
*2080 _1964_
*2081 _1965_
*2082 _1966_
*2083 _1967_
*2084 _1968_
*2085 _1969_
*2086 _1970_
*2087 _1971_
*2088 _1972_
*2089 _1973_
*2090 _1974_
*2091 _1975_
*2092 _1976_
*2093 _1977_
*2094 _1978_
*2095 _1979_
*2096 _1980_
*2097 _1981_
*2098 _1982_
*2099 _1983_
*2100 _1984_
*2101 _1985_
*2102 _1986_
*2103 _1987_
*2104 _1988_
*2105 _1989_
*2106 _1990_
*2107 _1991_
*2108 _1992_
*2109 _1993_
*2110 _1994_
*2111 _1995_
*2112 _1996_
*2113 _1997_
*2114 _1998_
*2115 _1999_
*2116 _2000_
*2117 _2001_
*2118 _2002_
*2119 _2003_
*2120 _2004_
*2121 _2005_
*2122 _2006_
*2123 _2007_
*2124 _2008_
*2125 _2009_
*2126 _2010_
*2127 _2011_
*2128 _2012_
*2129 _2013_
*2130 _2014_
*2131 _2015_
*2132 _2016_
*2133 _2017_
*2134 _2018_
*2135 _2019_
*2136 _2020_
*2137 _2021_
*2138 _2022_
*2139 _2023_
*2140 _2024_
*2141 _2025_
*2142 _2026_
*2143 _2027_
*2144 _2028_
*2145 _2029_
*2146 _2030_
*2147 _2031_
*2148 _2032_
*2149 _2033_
*2150 _2034_
*2151 _2035_
*2152 _2036_
*2153 _2037_
*2154 _2038_
*2155 _2039_
*2156 _2040_
*2157 _2041_
*2158 _2042_
*2159 _2043_
*2160 _2044_
*2161 _2045_
*2162 _2046_
*2163 _2047_
*2164 _2048_
*2165 _2049_
*2166 _2050_
*2167 _2051_
*2168 _2052_
*2169 _2053_
*2170 _2054_
*2171 _2055_
*2172 _2056_
*2173 _2057_
*2174 _2058_
*2175 _2059_
*2176 _2060_
*2177 _2061_
*2178 _2062_
*2179 _2063_
*2180 _2064_
*2181 _2065_
*2182 _2066_
*2183 _2067_
*2184 _2068_
*2185 _2069_
*2186 _2070_
*2187 _2071_
*2188 _2072_
*2189 _2073_
*2190 _2074_
*2191 _2075_
*2192 _2076_
*2193 _2077_
*2194 _2078_
*2195 _2079_
*2196 _2080_
*2197 _2081_
*2198 _2082_
*2199 _2083_
*2200 _2084_
*2201 _2085_
*2202 _2086_
*2203 _2087_
*2204 _2088_
*2205 _2089_
*2206 _2090_
*2207 _2091_
*2208 _2092_
*2209 _2093_
*2210 _2094_
*2211 _2095_
*2212 _2096_
*2213 _2097_
*2214 _2098_
*2215 _2099_
*2216 _2100_
*2217 _2101_
*2218 _2102_
*2219 _2103_
*2220 _2104_
*2221 _2105_
*2222 _2106_
*2223 _2107_
*2224 _2108_
*2225 _2109_
*2226 clknet_0_osc_in
*2227 clknet_1_0_0_osc_in
*2228 clknet_1_1_0_osc_in
*2229 gen_ROM_instances\[0\]\.u_ROM\.TP_ROE
*2230 gen_ROM_instances\[0\]\.u_ROM\.areg_open
*2231 gen_ROM_instances\[0\]\.u_ROM\.b11
*2232 gen_ROM_instances\[0\]\.u_ROM\.b43
*2233 gen_ROM_instances\[0\]\.u_ROM\.b44
*2234 gen_ROM_instances\[0\]\.u_ROM\.b50
*2235 gen_ROM_instances\[0\]\.u_ROM\.b54
*2236 gen_ROM_instances\[0\]\.u_ROM\.b55
*2237 gen_ROM_instances\[0\]\.u_ROM\.bnext\[0\]
*2238 gen_ROM_instances\[0\]\.u_ROM\.bnext\[1\]
*2239 gen_ROM_instances\[0\]\.u_ROM\.bnext\[2\]
*2240 gen_ROM_instances\[0\]\.u_ROM\.bnext\[3\]
*2241 gen_ROM_instances\[0\]\.u_ROM\.bnext\[4\]
*2242 gen_ROM_instances\[0\]\.u_ROM\.bnext\[5\]
*2243 gen_ROM_instances\[0\]\.u_ROM\.clr_ws
*2244 gen_ROM_instances\[0\]\.u_ROM\.clr_wsd
*2245 gen_ROM_instances\[0\]\.u_ROM\.is_reg\[0\]
*2246 gen_ROM_instances\[0\]\.u_ROM\.is_reg\[1\]
*2247 gen_ROM_instances\[0\]\.u_ROM\.is_reg\[2\]
*2248 gen_ROM_instances\[0\]\.u_ROM\.is_reg\[3\]
*2249 gen_ROM_instances\[0\]\.u_ROM\.is_reg\[4\]
*2250 gen_ROM_instances\[0\]\.u_ROM\.is_reg\[5\]
*2251 gen_ROM_instances\[0\]\.u_ROM\.is_reg\[6\]
*2252 gen_ROM_instances\[0\]\.u_ROM\.is_reg\[7\]
*2253 gen_ROM_instances\[0\]\.u_ROM\.is_reg\[8\]
*2254 gen_ROM_instances\[0\]\.u_ROM\.is_reg\[9\]
*2255 gen_ROM_instances\[0\]\.u_ROM\.isr1
*2256 gen_ROM_instances\[0\]\.u_ROM\.isr2
*2257 gen_ROM_instances\[0\]\.u_ROM\.isr3
*2258 gen_ROM_instances\[0\]\.u_ROM\.isr4