*SPEF "ieee 1481-1999"
*DESIGN "hp35_core"
*DATE "11:11:11 Fri 11 11, 1111"
*VENDOR "OpenRCX"
*PROGRAM "Parallel Extraction"
*VERSION "1.0"
*DESIGN_FLOW "NAME_SCOPE LOCAL" "PIN_CAP NONE"
*DIVIDER /
*DELIMITER :
*BUS_DELIMITER []
*T_UNIT 1 NS
*C_UNIT 1 PF
*R_UNIT 1 OHM
*L_UNIT 1 HENRY

*NAME_MAP
*1 COL[0]
*2 COL[1]
*3 COL[2]
*4 COL[3]
*5 COL[4]
*6 DD[0]
*7 DD[1]
*8 DD[2]
*9 DD[3]
*10 DD[4]
*11 PWO
*12 START
*13 bcd_bus
*14 bcd_in
*15 bcd_oen
*16 carry_bus
*17 carry_in
*18 carry_oen
*19 cdiv_rst
*20 dbg_arc_a1
*21 dbg_arc_b1
*22 dbg_arc_dummy
*23 dbg_arc_t1
*24 dbg_arc_t4
*25 dbg_ctc_kdn
*26 dbg_ctc_q[0]
*27 dbg_ctc_q[1]
*28 dbg_ctc_q[2]
*29 dbg_ctc_q[3]
*30 dbg_ctc_q[4]
*31 dbg_ctc_q[5]
*32 dbg_ctc_state1
*33 dbg_disable_arc
*34 dbg_disable_ctc
*35 dbg_disable_rom
*36 dbg_dsbf[0]
*37 dbg_dsbf[1]
*38 dbg_dsbf[2]
*39 dbg_dsbf[3]
*40 dbg_dsbf[4]
*41 dbg_force_data
*42 dbg_internal_cdiv
*43 dbg_rom_roe[0]
*44 dbg_rom_roe[1]
*45 dbg_rom_roe[2]
*46 dbg_romdata[0]
*47 dbg_romdata[1]
*48 dbg_romdata[2]
*49 dbg_romdata[3]
*50 dbg_romdata[4]
*51 dbg_romdata[5]
*52 dbg_romdata[6]
*53 dbg_romdata[7]
*54 dbg_romdata[8]
*55 dbg_romdata[9]
*56 dbg_sram_cksel[0]
*57 dbg_sram_cksel[1]
*58 dbg_sram_cksel[2]
*59 dbg_sram_csb1
*60 dbg_sram_wrmode[0]
*61 dbg_sram_wrmode[1]
*62 ia_bus
*63 ia_in
*64 ia_oen
*65 is_bus
*66 is_in
*67 is_oen
*68 osc_in
*69 phi1_in
*70 phi1_out
*71 phi2_in
*72 phi2_out
*73 phi_oen
*74 sraddr_in[0]
*75 sraddr_in[1]
*76 sraddr_in[2]
*77 sraddr_in[3]
*78 sraddr_in[4]
*79 sraddr_in[5]
*80 sraddr_in[6]
*81 sraddr_in[7]
*82 sraddr_mux[0]
*83 sraddr_mux[1]
*84 sraddr_mux[2]
*85 sraddr_mux[3]
*86 sraddr_mux[4]
*87 sraddr_mux[5]
*88 sraddr_mux[6]
*89 sraddr_mux[7]
*90 sram_clk1
*91 srdata[0]
*92 srdata[10]
*93 srdata[11]
*94 srdata[12]
*95 srdata[13]
*96 srdata[14]
*97 srdata[15]
*98 srdata[16]
*99 srdata[17]
*100 srdata[18]
*101 srdata[19]
*102 srdata[1]
*103 srdata[20]
*104 srdata[21]
*105 srdata[22]
*106 srdata[23]
*107 srdata[24]
*108 srdata[25]
*109 srdata[26]
*110 srdata[27]
*111 srdata[28]
*112 srdata[29]
*113 srdata[2]
*114 srdata[3]
*115 srdata[4]
*116 srdata[5]
*117 srdata[6]
*118 srdata[7]
*119 srdata[8]
*120 srdata[9]
*121 sync_bus
*122 sync_in
*123 sync_oen
*126 ws_bus
*127 ws_in
*128 ws_oen
*129 _0000_
*130 _0001_
*131 _0002_
*132 _0003_
*133 _0004_
*134 _0005_
*135 _0006_
*136 _0007_
*137 _0008_
*138 _0009_
*139 _0010_
*140 _0011_
*141 _0012_
*142 _0013_
*143 _0014_
*144 _0015_
*145 _0016_
*146 _0017_
*147 _0018_
*148 _0019_
*149 _0020_
*150 _0021_
*151 _0022_
*152 _0023_
*153 _0024_
*154 _0025_
*155 _0026_
*156 _0027_
*157 _0028_
*158 _0029_
*159 _0030_
*160 _0031_
*161 _0032_
*162 _0033_
*163 _0034_
*164 _0035_
*165 _0036_
*166 _0037_
*167 _0038_
*168 _0039_
*169 _0040_
*170 _0041_
*171 _0042_
*172 _0043_
*173 _0044_
*174 _0045_
*175 _0046_
*176 _0047_
*177 _0048_
*178 _0049_
*179 _0050_
*180 _0051_
*181 _0052_
*182 _0053_
*183 _0054_
*184 _0055_
*185 _0056_
*186 _0057_
*187 _0058_
*188 _0059_
*189 _0060_
*190 _0061_
*191 _0062_
*192 _0063_
*193 _0064_
*194 _0065_
*195 _0066_
*196 _0067_
*197 _0068_
*198 _0069_
*199 _0070_
*200 _0071_
*201 _0072_
*202 _0073_
*203 _0074_
*204 _0075_
*205 _0076_
*206 _0077_
*207 _0078_
*208 _0079_
*209 _0080_
*210 _0081_
*211 _0082_
*212 _0083_
*213 _0084_
*214 _0085_
*215 _0086_
*216 _0087_
*217 _0088_
*218 _0089_
*219 _0090_
*220 _0091_
*221 _0092_
*222 _0093_
*223 _0094_
*224 _0095_
*225 _0096_
*226 _0097_
*227 _0098_
*228 _0099_
*229 _0100_
*230 _0101_
*231 _0102_
*232 _0103_
*233 _0104_
*234 _0105_
*235 _0106_
*236 _0107_
*237 _0108_
*238 _0109_
*239 _0110_
*240 _0111_
*241 _0112_
*242 _0113_
*243 _0114_
*244 _0115_
*245 _0116_
*246 _0117_
*247 _0118_
*248 _0119_
*249 _0120_
*250 _0121_
*251 _0122_
*252 _0123_
*253 _0124_
*254 _0125_
*255 _0126_
*256 _0127_
*257 _0128_
*258 _0129_
*259 _0130_
*260 _0131_
*261 _0132_
*262 _0133_
*263 _0134_
*264 _0135_
*265 _0136_
*266 _0137_
*267 _0138_
*268 _0139_
*269 _0140_
*270 _0141_
*271 _0142_
*272 _0143_
*273 _0144_
*274 _0145_
*275 _0146_
*276 _0147_
*277 _0148_
*278 _0149_
*279 _0150_
*280 _0151_
*281 _0152_
*282 _0153_
*283 _0154_
*284 _0155_
*285 _0156_
*286 _0157_
*287 _0158_
*288 _0159_
*289 _0160_
*290 _0161_
*291 _0162_
*292 _0163_
*293 _0164_
*294 _0165_
*295 _0166_
*296 _0167_
*297 _0168_
*298 _0169_
*299 _0170_
*300 _0171_
*301 _0172_
*302 _0173_
*303 _0174_
*304 _0175_
*305 _0176_
*306 _0177_
*307 _0178_
*308 _0179_
*309 _0180_
*310 _0181_
*311 _0182_
*312 _0183_
*313 _0184_
*314 _0185_
*315 _0186_
*316 _0187_
*317 _0188_
*318 _0189_
*319 _0190_
*320 _0191_
*321 _0192_
*322 _0193_
*323 _0194_
*324 _0195_
*325 _0196_
*326 _0197_
*327 _0198_
*328 _0199_
*329 _0200_
*330 _0201_
*331 _0202_
*332 _0203_
*333 _0204_
*334 _0205_
*335 _0206_
*336 _0207_
*337 _0208_
*338 _0209_
*339 _0210_
*340 _0211_
*341 _0212_
*342 _0213_
*343 _0214_
*344 _0215_
*345 _0216_
*346 _0217_
*347 _0218_
*348 _0219_
*349 _0220_
*350 _0221_
*351 _0222_
*352 _0223_
*353 _0224_
*354 _0225_
*355 _0226_
*356 _0227_
*357 _0228_
*358 _0229_
*359 _0230_
*360 _0231_
*361 _0232_
*362 _0233_
*363 _0234_
*364 _0235_
*365 _0236_
*366 _0237_
*367 _0238_
*368 _0239_
*369 _0240_
*370 _0241_
*371 _0242_
*372 _0243_
*373 _0244_
*374 _0245_
*375 _0246_
*376 _0247_
*377 _0248_
*378 _0249_
*379 _0250_
*380 _0251_
*381 _0252_
*382 _0253_
*383 _0254_
*384 _0255_
*385 _0256_
*386 _0257_
*387 _0258_
*388 _0259_
*389 _0260_
*390 _0261_
*391 _0262_
*392 _0263_
*393 _0264_
*394 _0265_
*395 _0266_
*396 _0267_
*397 _0268_
*398 _0269_
*399 _0270_
*400 _0271_
*401 _0272_
*402 _0273_
*403 _0274_
*404 _0275_
*405 _0276_
*406 _0277_
*407 _0278_
*408 _0279_
*409 _0280_
*410 _0281_
*411 _0282_
*412 _0283_
*413 _0284_
*414 _0285_
*415 _0286_
*416 _0287_
*417 _0288_
*418 _0289_
*419 _0290_
*420 _0291_
*421 _0292_
*422 _0293_
*423 _0294_
*424 _0295_
*425 _0296_
*426 _0297_
*427 _0298_
*428 _0299_
*429 _0300_
*430 _0301_
*431 _0302_
*432 _0303_
*433 _0304_
*434 _0305_
*435 _0306_
*436 _0307_
*437 _0308_
*438 _0309_
*439 _0310_
*440 _0311_
*441 _0312_
*442 _0313_
*443 _0314_
*444 _0315_
*445 _0316_
*446 _0317_
*447 _0318_
*448 _0319_
*449 _0320_
*450 _0321_
*451 _0322_
*452 _0323_
*453 _0324_
*454 _0325_
*455 _0326_
*456 _0327_
*457 _0328_
*458 _0329_
*459 _0330_
*460 _0331_
*461 _0332_
*462 _0333_
*463 _0334_
*464 _0335_
*465 _0336_
*466 _0337_
*467 _0338_
*468 _0339_
*469 _0340_
*470 _0341_
*471 _0342_
*472 _0343_
*473 _0344_
*474 _0345_
*475 _0346_
*476 _0347_
*477 _0348_
*478 _0349_
*479 _0350_
*480 _0351_
*481 _0352_
*482 _0353_
*483 _0354_
*484 _0355_
*485 _0356_
*486 _0357_
*487 _0358_
*488 _0359_
*489 _0360_
*490 _0361_
*491 _0362_
*492 _0363_
*493 _0364_
*494 _0365_
*495 _0366_
*496 _0367_
*497 _0368_
*498 _0369_
*499 _0370_
*500 _0371_
*501 _0372_
*502 _0373_
*503 _0374_
*504 _0375_
*505 _0376_
*506 _0377_
*507 _0378_
*508 _0379_
*509 _0380_
*510 _0381_
*511 _0382_
*512 _0383_
*513 _0384_
*514 _0385_
*515 _0386_
*516 _0387_
*517 _0388_
*518 _0389_
*519 _0390_
*520 _0391_
*521 _0392_
*522 _0393_
*523 _0394_
*524 _0395_
*525 _0396_
*526 _0397_
*527 _0398_
*528 _0399_
*529 _0400_
*530 _0401_
*531 _0402_
*532 _0403_
*533 _0404_
*534 _0405_
*535 _0406_
*536 _0407_
*537 _0408_
*538 _0409_
*539 _0410_
*540 _0411_
*541 _0412_
*542 _0413_
*543 _0414_
*544 _0415_
*545 _0416_
*546 _0417_
*547 _0418_
*548 _0419_
*549 _0420_
*550 _0421_
*551 _0422_
*552 _0423_
*553 _0424_
*554 _0425_
*555 _0426_
*556 _0427_
*557 _0428_
*558 _0429_
*559 _0430_
*560 _0431_
*561 _0432_
*562 _0433_
*563 _0434_
*564 _0435_
*565 _0436_
*566 _0437_
*567 _0438_
*568 _0439_
*569 _0440_
*570 _0441_
*571 _0442_
*572 _0443_
*573 _0444_
*574 _0445_
*575 _0446_
*576 _0447_
*577 _0448_
*578 _0449_
*579 _0450_
*580 _0451_
*581 _0452_
*582 _0453_
*583 _0454_
*584 _0455_
*585 _0456_
*586 _0457_
*587 _0458_
*588 _0459_
*589 _0460_
*590 _0461_
*591 _0462_
*592 _0463_
*593 _0464_
*594 _0465_
*595 _0466_
*596 _0467_
*597 _0468_
*598 _0469_
*599 _0470_
*600 _0471_
*601 _0472_
*602 _0473_
*603 _0474_
*604 _0475_
*605 _0476_
*606 _0477_
*607 _0478_
*608 _0479_
*609 _0480_
*610 _0481_
*611 _0482_
*612 _0483_
*613 _0484_
*614 _0485_
*615 _0486_
*616 _0487_
*617 _0488_
*618 _0489_
*619 _0490_
*620 _0491_
*621 _0492_
*622 _0493_
*623 _0494_
*624 _0495_
*625 _0496_
*626 _0497_
*627 _0498_
*628 _0499_
*629 _0500_
*630 _0501_
*631 _0502_
*632 _0503_
*633 _0504_
*634 _0505_
*635 _0506_
*636 _0507_
*637 _0508_
*638 _0509_
*639 _0510_
*640 _0511_
*641 _0512_
*642 _0513_
*643 _0514_
*644 _0515_
*645 _0516_
*646 _0517_
*647 _0518_
*648 _0519_
*649 _0520_
*650 _0521_
*651 _0522_
*652 _0523_
*653 _0524_
*654 _0525_
*655 _0526_
*656 _0527_
*657 _0528_
*658 _0529_
*659 _0530_
*660 _0531_
*661 _0532_
*662 _0533_
*663 _0534_
*664 _0535_
*665 _0536_
*666 _0537_
*667 _0538_
*668 _0539_
*669 _0540_
*670 _0541_
*671 _0542_
*672 _0543_
*673 _0544_
*674 _0545_
*675 _0546_
*676 _0547_
*677 _0548_
*678 _0549_
*679 _0550_
*680 _0551_
*681 _0552_
*682 _0553_
*683 _0554_
*684 _0555_
*685 _0556_
*686 _0557_
*687 _0558_
*688 _0559_
*689 _0560_
*690 _0561_
*691 _0562_
*692 _0563_
*693 _0564_
*694 _0565_
*695 _0566_
*696 _0567_
*697 _0568_
*698 _0569_
*699 _0570_
*700 _0571_
*701 _0572_
*702 _0573_
*703 _0574_
*704 _0575_
*705 _0576_
*706 _0577_
*707 _0578_
*708 _0579_
*709 _0580_
*710 _0581_
*711 _0582_
*712 _0583_
*713 _0584_
*714 _0585_
*715 _0586_
*716 _0587_
*717 _0588_
*718 _0589_
*719 _0590_
*720 _0591_
*721 _0592_
*722 _0593_
*723 _0594_
*724 _0595_
*725 _0596_
*726 _0597_
*727 _0598_
*728 _0599_
*729 _0600_
*730 _0601_
*731 _0602_
*732 _0603_
*733 _0604_
*734 _0605_
*735 _0606_
*736 _0607_
*737 _0608_
*738 _0609_
*739 _0610_
*740 _0611_
*741 _0612_
*742 _0613_
*743 _0614_
*744 _0615_
*745 _0616_
*746 _0617_
*747 _0618_
*748 _0619_
*749 _0620_
*750 _0621_
*751 _0622_
*752 _0623_
*753 _0624_
*754 _0625_
*755 _0626_
*756 _0627_
*757 _0628_
*758 _0629_
*759 _0630_
*760 _0631_
*761 _0632_
*762 _0633_
*763 _0634_
*764 _0635_
*765 _0636_
*766 _0637_
*767 _0638_
*768 _0639_
*769 _0640_
*770 _0641_
*771 _0642_
*772 _0643_
*773 _0644_
*774 _0645_
*775 _0646_
*776 _0647_
*777 _0648_
*778 _0649_
*779 _0650_
*780 _0651_
*781 _0652_
*782 _0653_
*783 _0654_
*784 _0655_
*785 _0656_
*786 _0657_
*787 _0658_
*788 _0659_
*789 _0660_
*790 _0661_
*791 _0662_
*792 _0663_
*793 _0664_
*794 _0665_
*795 _0666_
*796 _0667_
*797 _0668_
*798 _0669_
*799 _0670_
*800 _0671_
*801 _0672_
*802 _0673_
*803 _0674_
*804 _0675_
*805 _0676_
*806 _0677_
*807 _0678_
*808 _0679_
*809 _0680_
*810 _0681_
*811 _0682_
*812 _0683_
*813 _0684_
*814 _0685_
*815 _0686_
*816 _0687_
*817 _0688_
*818 _0689_
*819 _0690_
*820 _0691_
*821 _0692_
*822 _0693_
*823 _0694_
*824 _0695_
*825 _0696_
*826 _0697_
*827 _0698_
*828 _0699_
*829 _0700_
*830 _0701_
*831 _0702_
*832 _0703_
*833 _0704_
*834 _0705_
*835 _0706_
*836 _0707_
*837 _0708_
*838 _0709_
*839 _0710_
*840 _0711_
*841 _0712_
*842 _0713_
*843 _0714_
*844 _0715_
*845 _0716_
*846 _0717_
*847 _0718_
*848 _0719_
*849 _0720_
*850 _0721_
*851 _0722_
*852 _0723_
*853 _0724_
*854 _0725_
*855 _0726_
*856 _0727_
*857 _0728_
*858 _0729_
*859 _0730_
*860 _0731_
*861 _0732_
*862 _0733_
*863 _0734_
*864 _0735_
*865 _0736_
*866 _0737_
*867 _0738_
*868 _0739_
*869 _0740_
*870 _0741_
*871 _0742_
*872 _0743_
*873 _0744_
*874 _0745_
*875 _0746_
*876 _0747_
*877 _0748_
*878 _0749_
*879 _0750_
*880 _0751_
*881 _0752_
*882 _0753_
*883 _0754_
*884 _0755_
*885 _0756_
*886 _0757_
*887 _0758_
*888 _0759_
*889 _0760_
*890 _0761_
*891 _0762_
*892 _0763_
*893 _0764_
*894 _0765_
*895 _0766_
*896 _0767_
*897 _0768_
*898 _0769_
*899 _0770_
*900 _0771_
*901 _0772_
*902 _0773_
*903 _0774_
*904 _0775_
*905 _0776_
*906 _0777_
*907 _0778_
*908 _0779_
*909 _0780_
*910 _0781_
*911 _0782_
*912 _0783_
*913 _0784_
*914 _0785_
*915 _0786_
*916 _0787_
*917 _0788_
*918 _0789_
*919 _0790_
*920 _0791_
*921 _0792_
*922 _0793_
*923 _0794_
*924 _0795_
*925 _0796_
*926 _0797_
*927 _0798_
*928 _0799_
*929 _0800_
*930 _0801_
*931 _0802_
*932 _0803_
*933 _0804_
*934 _0805_
*935 _0806_
*936 _0807_
*937 _0808_
*938 _0809_
*939 _0810_
*940 _0811_
*941 _0812_
*942 _0813_
*943 _0814_
*944 _0815_
*945 _0816_
*946 _0817_
*947 _0818_
*948 _0819_
*949 _0820_
*950 _0821_
*951 _0822_
*952 _0823_
*953 _0824_
*954 _0825_
*955 _0826_
*956 _0827_
*957 _0828_
*958 _0829_
*959 _0830_
*960 _0831_
*961 _0832_
*962 _0833_
*963 _0834_
*964 _0835_
*965 _0836_
*966 _0837_
*967 _0838_
*968 _0839_
*969 _0840_
*970 _0841_
*971 _0842_
*972 _0843_
*973 _0844_
*974 _0845_
*975 _0846_
*976 _0847_
*977 _0848_
*978 _0849_
*979 _0850_
*980 _0851_
*981 _0852_
*982 _0853_
*983 _0854_
*984 _0855_
*985 _0856_
*986 _0857_
*987 _0858_
*988 _0859_
*989 _0860_
*990 _0861_
*991 _0862_
*992 _0863_
*993 _0864_
*994 _0865_
*995 _0866_
*996 _0867_
*997 _0868_
*998 _0869_
*999 _0870_
*1000 _0871_
*1001 _0872_
*1002 _0873_
*1003 _0874_
*1004 _0875_
*1005 _0876_
*1006 _0877_
*1007 _0878_
*1008 _0879_
*1009 _0880_
*1010 _0881_
*1011 _0882_
*1012 _0883_
*1013 _0884_
*1014 _0885_
*1015 _0886_
*1016 _0887_
*1017 _0888_
*1018 _0889_
*1019 _0890_
*1020 _0891_
*1021 _0892_
*1022 _0893_
*1023 _0894_
*1024 _0895_
*1025 _0896_
*1026 _0897_
*1027 _0898_
*1028 _0899_
*1029 _0900_
*1030 _0901_
*1031 _0902_
*1032 _0903_
*1033 _0904_
*1034 _0905_
*1035 _0906_
*1036 _0907_
*1037 _0908_
*1038 _0909_
*1039 _0910_
*1040 _0911_
*1041 _0912_
*1042 _0913_
*1043 _0914_
*1044 _0915_
*1045 _0916_
*1046 _0917_
*1047 _0918_
*1048 _0919_
*1049 _0920_
*1050 _0921_
*1051 _0922_
*1052 _0923_
*1053 _0924_
*1054 _0925_
*1055 _0926_
*1056 _0927_
*1057 _0928_
*1058 _0929_
*1059 _0930_
*1060 _0931_
*1061 _0932_
*1062 _0933_
*1063 _0934_
*1064 _0935_
*1065 _0936_
*1066 _0937_
*1067 _0938_
*1068 _0939_
*1069 _0940_
*1070 _0941_
*1071 _0942_
*1072 _0943_
*1073 _0944_
*1074 _0945_
*1075 _0946_
*1076 _0947_
*1077 _0948_
*1078 _0949_
*1079 _0950_
*1080 _0951_
*1081 _0952_
*1082 _0953_
*1083 _0954_
*1084 _0955_
*1085 _0956_
*1086 _0957_
*1087 _0958_
*1088 _0959_
*1089 _0960_
*1090 _0961_
*1091 _0962_
*1092 _0963_
*1093 _0964_
*1094 _0965_
*1095 _0966_
*1096 _0967_
*1097 _0968_
*1098 _0969_
*1099 _0970_
*1100 _0971_
*1101 _0972_
*1102 _0973_
*1103 _0974_
*1104 _0975_
*1105 _0976_
*1106 _0977_
*1107 _0978_
*1108 _0979_
*1109 _0980_
*1110 _0981_
*1111 _0982_
*1112 _0983_
*1113 _0984_
*1114 _0985_
*1115 _0986_
*1116 _0987_
*1117 _0988_
*1118 _0989_
*1119 _0990_
*1120 _0991_
*1121 _0992_
*1122 _0993_
*1123 _0994_
*1124 _0995_
*1125 _0996_
*1126 _0997_
*1127 _0998_
*1128 _0999_
*1129 _1000_
*1130 _1001_
*1131 _1002_
*1132 _1003_
*1133 _1004_
*1134 _1005_
*1135 _1006_
*1136 _1007_
*1137 _1008_
*1138 _1009_
*1139 _1010_
*1140 _1011_
*1141 _1012_
*1142 _1013_
*1143 _1014_
*1144 _1015_
*1145 _1016_
*1146 _1017_
*1147 _1018_
*1148 _1019_
*1149 _1020_
*1150 _1021_
*1151 _1022_
*1152 _1023_
*1153 _1024_
*1154 _1025_
*1155 _1026_
*1156 _1027_
*1157 _1028_
*1158 _1029_
*1159 _1030_
*1160 _1031_
*1161 _1032_
*1162 _1033_
*1163 _1034_
*1164 _1035_
*1165 _1036_
*1166 _1037_
*1167 _1038_
*1168 _1039_
*1169 _1040_
*1170 _1041_
*1171 _1042_
*1172 _1043_
*1173 _1044_
*1174 _1045_
*1175 _1046_
*1176 _1047_
*1177 _1048_
*1178 _1049_
*1179 _1050_
*1180 _1051_
*1181 _1052_
*1182 _1053_
*1183 _1054_
*1184 _1055_
*1185 _1056_
*1186 _1057_
*1187 _1058_
*1188 _1059_
*1189 _1060_
*1190 _1061_
*1191 _1062_
*1192 _1063_
*1193 _1064_
*1194 _1065_
*1195 _1066_
*1196 _1067_
*1197 _1068_
*1198 _1069_
*1199 _1070_
*1200 _1071_
*1201 _1072_
*1202 _1073_
*1203 _1074_
*1204 _1075_
*1205 _1076_
*1206 _1077_
*1207 _1078_
*1208 _1079_
*1209 _1080_
*1210 _1081_
*1211 _1082_
*1212 _1083_
*1213 _1084_
*1214 _1085_
*1215 _1086_
*1216 _1087_
*1217 _1088_
*1218 _1089_
*1219 _1090_
*1220 _1091_
*1221 _1092_
*1222 _1093_
*1223 _1094_
*1224 _1095_
*1225 _1096_
*1226 _1097_
*1227 _1098_
*1228 _1099_
*1229 _1100_
*1230 _1101_
*1231 _1102_
*1232 _1103_
*1233 _1104_
*1234 _1105_
*1235 _1106_
*1236 _1107_
*1237 _1108_
*1238 _1109_
*1239 _1110_
*1240 _1111_
*1241 _1112_
*1242 _1113_
*1243 _1114_
*1244 _1115_
*1245 _1116_
*1246 _1117_
*1247 _1118_
*1248 _1119_
*1249 _1120_
*1250 _1121_
*1251 _1122_
*1252 _1123_
*1253 _1124_
*1254 _1125_
*1255 _1126_
*1256 _1127_
*1257 _1128_
*1258 _1129_
*1259 _1130_
*1260 _1131_
*1261 _1132_
*1262 _1133_
*1263 _1134_
*1264 _1135_
*1265 _1136_
*1266 _1137_
*1267 _1138_
*1268 _1139_
*1269 _1140_
*1270 _1141_
*1271 _1142_
*1272 _1143_
*1273 _1144_
*1274 _1145_
*1275 _1146_
*1276 _1147_
*1277 _1148_
*1278 _1149_
*1279 _1150_
*1280 _1151_
*1281 _1152_
*1282 _1153_
*1283 _1154_
*1284 _1155_
*1285 _1156_
*1286 _1157_
*1287 _1158_
*1288 _1159_
*1289 _1160_
*1290 _1161_
*1291 _1162_
*1292 _1163_
*1293 _1164_
*1294 _1165_
*1295 _1166_
*1296 _1167_
*1297 _1168_
*1298 _1169_
*1299 _1170_
*1300 _1171_
*1301 _1172_
*1302 _1173_
*1303 _1174_
*1304 _1175_
*1305 _1176_
*1306 _1177_
*1307 _1178_
*1308 _1179_
*1309 _1180_
*1310 _1181_
*1311 _1182_
*1312 _1183_
*1313 _1184_
*1314 _1185_
*1315 _1186_
*1316 _1187_
*1317 _1188_
*1318 _1189_
*1319 _1190_
*1320 _1191_
*1321 _1192_
*1322 _1193_
*1323 _1194_
*1324 _1195_
*1325 _1196_
*1326 _1197_
*1327 _1198_
*1328 _1199_
*1329 _1200_
*1330 _1201_
*1331 _1202_
*1332 _1203_
*1333 _1204_
*1334 _1205_
*1335 _1206_
*1336 _1207_
*1337 _1208_
*1338 _1209_
*1339 _1210_
*1340 _1211_
*1341 _1212_
*1342 _1213_
*1343 _1214_
*1344 _1215_
*1345 _1216_
*1346 _1217_
*1347 _1218_
*1348 _1219_
*1349 _1220_
*1350 _1221_
*1351 _1222_
*1352 _1223_
*1353 _1224_
*1354 _1225_
*1355 _1226_
*1356 _1227_
*1357 _1228_
*1358 _1229_
*1359 _1230_
*1360 _1231_
*1361 _1232_
*1362 _1233_
*1363 _1234_
*1364 _1235_
*1365 _1236_
*1366 _1237_
*1367 _1238_
*1368 _1239_
*1369 _1240_
*1370 _1241_
*1371 _1242_
*1372 _1243_
*1373 _1244_
*1374 _1245_
*1375 _1246_
*1376 _1247_
*1377 _1248_
*1378 _1249_
*1379 _1250_
*1380 _1251_
*1381 _1252_
*1382 _1253_
*1383 _1254_
*1384 _1255_
*1385 _1256_
*1386 _1257_
*1387 _1258_
*1388 _1259_
*1389 _1260_
*1390 _1261_
*1391 _1262_
*1392 _1263_
*1393 _1264_
*1394 _1265_
*1395 _1266_
*1396 _1267_
*1397 _1268_
*1398 _1269_
*1399 _1270_
*1400 _1271_
*1401 _1272_
*1402 _1273_
*1403 _1274_
*1404 _1275_
*1405 _1276_
*1406 _1277_
*1407 _1278_
*1408 _1279_
*1409 _1280_
*1410 _1281_
*1411 _1282_
*1412 _1283_
*1413 _1284_
*1414 _1285_
*1415 _1286_
*1416 _1287_
*1417 _1288_
*1418 _1289_
*1419 _1290_
*1420 _1291_
*1421 _1292_
*1422 _1293_
*1423 _1294_
*1424 _1295_
*1425 _1296_
*1426 _1297_
*1427 _1298_
*1428 _1299_
*1429 _1300_
*1430 _1301_
*1431 _1302_
*1432 _1303_
*1433 _1304_
*1434 _1305_
*1435 _1306_
*1436 _1307_
*1437 _1308_
*1438 _1309_
*1439 _1310_
*1440 _1311_
*1441 _1312_
*1442 _1313_
*1443 _1314_
*1444 _1315_
*1445 _1316_
*1446 _1317_
*1447 _1318_
*1448 _1319_
*1449 _1320_
*1450 _1321_
*1451 _1322_
*1452 _1323_
*1453 _1324_
*1454 _1325_
*1455 _1326_
*1456 _1327_
*1457 _1328_
*1458 _1329_
*1459 _1330_
*1460 _1331_
*1461 _1332_
*1462 _1333_
*1463 _1334_
*1464 _1335_
*1465 _1336_
*1466 _1337_
*1467 _1338_
*1468 _1339_
*1469 _1340_
*1470 _1341_
*1471 _1342_
*1472 _1343_
*1473 _1344_
*1474 _1345_
*1475 _1346_
*1476 _1347_
*1477 _1348_
*1478 _1349_
*1479 _1350_
*1480 _1351_
*1481 _1352_
*1482 _1353_
*1483 _1354_
*1484 _1355_
*1485 _1356_
*1486 _1357_
*1487 _1358_
*1488 _1359_
*1489 _1360_
*1490 _1361_
*1491 _1362_
*1492 _1363_
*1493 _1364_
*1494 _1365_
*1495 _1366_
*1496 _1367_
*1497 _1368_
*1498 _1369_
*1499 _1370_
*1500 _1371_
*1501 _1372_
*1502 _1373_
*1503 _1374_
*1504 _1375_
*1505 _1376_
*1506 _1377_
*1507 _1378_
*1508 _1379_
*1509 _1380_
*1510 _1381_
*1511 _1382_
*1512 _1383_
*1513 _1384_
*1514 _1385_
*1515 _1386_
*1516 _1387_
*1517 _1388_
*1518 _1389_
*1519 _1390_
*1520 _1391_
*1521 _1392_
*1522 _1393_
*1523 _1394_
*1524 _1395_
*1525 _1396_
*1526 _1397_
*1527 _1398_
*1528 _1399_
*1529 _1400_
*1530 _1401_
*1531 _1402_
*1532 _1403_
*1533 _1404_
*1534 _1405_
*1535 _1406_
*1536 _1407_
*1537 _1408_
*1538 _1409_
*1539 _1410_
*1540 _1411_
*1541 _1412_
*1542 _1413_
*1543 _1414_
*1544 _1415_
*1545 _1416_
*1546 _1417_
*1547 _1418_
*1548 _1419_
*1549 _1420_
*1550 _1421_
*1551 _1422_
*1552 _1423_
*1553 _1424_
*1554 _1425_
*1555 _1426_
*1556 _1427_
*1557 _1428_
*1558 _1429_
*1559 _1430_
*1560 _1431_
*1561 _1432_
*1562 _1433_
*1563 _1434_
*1564 _1435_
*1565 _1436_
*1566 _1437_
*1567 _1438_
*1568 _1439_
*1569 _1440_
*1570 _1441_
*1571 _1442_
*1572 _1443_
*1573 _1444_
*1574 _1445_
*1575 _1446_
*1576 _1447_
*1577 _1448_
*1578 _1449_
*1579 _1450_
*1580 _1451_
*1581 _1452_
*1582 _1453_
*1583 _1454_
*1584 _1455_
*1585 _1456_
*1586 _1457_
*1587 _1458_
*1588 _1459_
*1589 _1460_
*1590 _1461_
*1591 _1462_
*1592 _1463_
*1593 _1464_
*1594 _1465_
*1595 _1466_
*1596 _1467_
*1597 _1468_
*1598 _1469_
*1599 _1470_
*1600 _1471_
*1601 _1472_
*1602 _1473_
*1603 _1474_
*1604 _1475_
*1605 _1476_
*1606 _1477_
*1607 _1478_
*1608 _1479_
*1609 _1480_
*1610 _1481_
*1611 _1482_
*1612 _1483_
*1613 _1484_
*1614 _1485_
*1615 _1486_
*1616 _1487_
*1617 _1488_
*1618 _1489_
*1619 _1490_
*1620 _1491_
*1621 _1492_
*1622 _1493_
*1623 _1494_
*1624 _1495_
*1625 _1496_
*1626 _1497_
*1627 _1498_
*1628 _1499_
*1629 _1500_
*1630 _1501_
*1631 _1502_
*1632 _1503_
*1633 _1504_
*1634 _1505_
*1635 _1506_
*1636 _1507_
*1637 _1508_
*1638 _1509_
*1639 _1510_
*1640 _1511_
*1641 _1512_
*1642 _1513_
*1643 _1514_
*1644 _1515_
*1645 _1516_
*1646 _1517_
*1647 _1518_
*1648 _1519_
*1649 _1520_
*1650 _1521_
*1651 _1522_
*1652 _1523_
*1653 _1524_
*1654 _1525_
*1655 _1526_
*1656 _1527_
*1657 _1528_
*1658 _1529_
*1659 _1530_
*1660 _1531_
*1661 _1532_
*1662 _1533_
*1663 _1534_
*1664 _1535_
*1665 _1536_
*1666 _1537_
*1667 _1538_
*1668 _1539_
*1669 _1540_
*1670 _1541_
*1671 _1542_
*1672 _1543_
*1673 _1544_
*1674 _1545_
*1675 _1546_
*1676 _1547_
*1677 _1548_
*1678 _1549_
*1679 _1550_
*1680 _1551_
*1681 _1552_
*1682 _1553_
*1683 _1554_
*1684 _1555_
*1685 _1556_
*1686 _1557_
*1687 _1558_
*1688 _1559_
*1689 _1560_
*1690 _1561_
*1691 _1562_
*1692 _1563_
*1693 _1564_
*1694 _1565_
*1695 _1566_
*1696 _1567_
*1697 _1568_
*1698 _1569_
*1699 _1570_
*1700 _1571_
*1701 _1572_
*1702 _1573_
*1703 _1574_
*1704 _1575_
*1705 _1576_
*1706 _1577_
*1707 _1578_
*1708 _1579_
*1709 _1580_
*1710 _1581_
*1711 _1582_
*1712 _1583_
*1713 _1584_
*1714 _1585_
*1715 _1586_
*1716 _1587_
*1717 _1588_
*1718 _1589_
*1719 _1590_
*1720 _1591_
*1721 _1592_
*1722 _1593_
*1723 _1594_
*1724 _1595_
*1725 _1596_
*1726 _1597_
*1727 _1598_
*1728 _1599_
*1729 _1600_
*1730 _1601_
*1731 _1602_
*1732 _1603_
*1733 _1604_
*1734 _1605_
*1735 _1606_
*1736 _1607_
*1737 _1608_
*1738 _1609_
*1739 _1610_
*1740 _1611_
*1741 _1612_
*1742 _1613_
*1743 _1614_
*1744 _1615_
*1745 _1616_
*1746 _1617_
*1747 _1618_
*1748 _1619_
*1749 _1620_
*1750 _1621_
*1751 _1622_
*1752 _1623_
*1753 _1624_
*1754 _1625_
*1755 _1626_
*1756 _1627_
*1757 _1628_
*1758 _1629_
*1759 _1630_
*1760 _1631_
*1761 _1632_
*1762 _1633_
*1763 _1634_
*1764 _1635_
*1765 _1636_
*1766 _1637_
*1767 _1638_
*1768 _1639_
*1769 _1640_
*1770 _1641_
*1771 _1642_
*1772 _1643_
*1773 _1644_
*1774 _1645_
*1775 _1646_
*1776 _1647_
*1777 _1648_
*1778 _1649_
*1779 _1650_
*1780 _1651_
*1781 _1652_
*1782 _1653_
*1783 _1654_
*1784 _1655_
*1785 _1656_
*1786 _1657_
*1787 _1658_
*1788 _1659_
*1789 _1660_
*1790 _1661_
*1791 _1662_
*1792 _1663_
*1793 _1664_
*1794 _1665_
*1795 _1666_
*1796 _1667_
*1797 _1668_
*1798 _1669_
*1799 _1670_
*1800 _1671_
*1801 _1672_
*1802 _1673_
*1803 _1674_
*1804 _1675_
*1805 _1676_
*1806 _1677_
*1807 _1678_
*1808 _1679_
*1809 _1680_
*1810 _1681_
*1811 _1682_
*1812 _1683_
*1813 _1684_
*1814 _1685_
*1815 _1686_
*1816 _1687_
*1817 _1688_
*1818 _1689_
*1819 _1690_
*1820 _1691_
*1821 _1692_
*1822 _1693_
*1823 _1694_
*1824 _1695_
*1825 _1696_
*1826 _1697_
*1827 _1698_
*1828 _1699_
*1829 _1700_
*1830 _1701_
*1831 _1702_
*1832 _1703_
*1833 _1704_
*1834 _1705_
*1835 _1706_
*1836 _1707_
*1837 _1708_
*1838 _1709_
*1839 _1710_
*1840 _1711_
*1841 _1712_
*1842 _1713_
*1843 _1714_
*1844 _1715_
*1845 _1716_
*1846 _1717_
*1847 _1718_
*1848 _1719_
*1849 _1720_
*1850 _1721_
*1851 _1722_
*1852 _1723_
*1853 _1724_
*1854 _1725_
*1855 _1726_
*1856 _1727_
*1857 _1728_
*1858 _1729_
*1859 _1730_
*1860 _1731_
*1861 _1732_
*1862 _1733_
*1863 _1734_
*1864 _1735_
*1865 _1736_
*1866 _1737_
*1867 _1738_
*1868 _1739_
*1869 _1740_
*1870 _1741_
*1871 _1742_
*1872 _1743_
*1873 _1744_
*1874 _1745_
*1875 _1746_
*1876 _1747_
*1877 _1748_
*1878 _1749_
*1879 _1750_
*1880 _1751_
*1881 _1752_
*1882 _1753_
*1883 _1754_
*1884 _1755_
*1885 _1756_
*1886 _1757_
*1887 _1758_
*1888 _1759_
*1889 _1760_
*1890 _1761_
*1891 _1762_
*1892 _1763_
*1893 _1764_
*1894 _1765_
*1895 _1766_
*1896 _1767_
*1897 _1768_
*1898 _1769_
*1899 _1770_
*1900 _1771_
*1901 _1772_
*1902 _1773_
*1903 _1774_
*1904 _1775_
*1905 _1776_
*1906 _1777_
*1907 _1778_
*1908 _1779_
*1909 _1780_
*1910 _1781_
*1911 _1782_
*1912 _1783_
*1913 _1784_
*1914 _1785_
*1915 _1786_
*1916 _1787_
*1917 _1788_
*1918 _1789_
*1919 _1790_
*1920 _1791_
*1921 _1792_
*1922 _1793_
*1923 _1794_
*1924 _1795_
*1925 _1796_
*1926 _1797_
*1927 _1798_
*1928 _1799_
*1929 _1800_
*1930 _1801_
*1931 _1802_
*1932 _1803_
*1933 _1804_
*1934 _1805_
*1935 _1806_
*1936 _1807_
*1937 _1808_
*1938 _1809_
*1939 _1810_
*1940 _1811_
*1941 _1812_
*1942 _1813_
*1943 _1814_
*1944 _1815_
*1945 _1816_
*1946 _1817_
*1947 _1818_
*1948 _1819_
*1949 _1820_
*1950 _1821_
*1951 _1822_
*1952 _1823_
*1953 _1824_
*1954 _1825_
*1955 _1826_
*1956 _1827_
*1957 _1828_
*1958 _1829_
*1959 _1830_
*1960 _1831_
*1961 _1832_
*1962 _1833_
*1963 _1834_
*1964 _1835_
*1965 _1836_
*1966 _1837_
*1967 _1838_
*1968 _1839_
*1969 _1840_
*1970 _1841_
*1971 _1842_
*1972 _1843_
*1973 _1844_
*1974 _1845_
*1975 _1846_
*1976 _1847_
*1977 _1848_
*1978 _1849_
*1979 _1850_
*1980 _1851_
*1981 _1852_
*1982 _1853_
*1983 _1854_
*1984 _1855_
*1985 _1856_
*1986 _1857_
*1987 _1858_
*1988 _1859_
*1989 _1860_
*1990 _1861_
*1991 _1862_
*1992 _1863_
*1993 _1864_
*1994 _1865_
*1995 _1866_
*1996 _1867_
*1997 _1868_
*1998 _1869_
*1999 _1870_
*2000 _1871_
*2001 _1872_
*2002 _1873_
*2003 _1874_
*2004 _1875_
*2005 _1876_
*2006 _1877_
*2007 _1878_
*2008 _1879_
*2009 _1880_
*2010 _1881_
*2011 _1882_
*2012 _1883_
*2013 _1884_
*2014 _1885_
*2015 _1886_
*2016 _1887_
*2017 _1888_
*2018 _1889_
*2019 _1890_
*2020 _1891_
*2021 _1892_
*2022 _1893_
*2023 _1894_
*2024 _1895_
*2025 _1896_
*2026 _1897_
*2027 _1898_
*2028 _1899_
*2029 _1900_
*2030 _1901_
*2031 _1902_
*2032 _1903_
*2033 _1904_
*2034 _1905_
*2035 _1906_
*2036 _1907_
*2037 _1908_
*2038 _1909_
*2039 _1910_
*2040 _1911_
*2041 _1912_
*2042 _1913_
*2043 _1914_
*2044 _1915_
*2045 _1916_
*2046 _1917_
*2047 _1918_
*2048 _1919_
*2049 _1920_
*2050 _1921_
*2051 _1922_
*2052 _1923_
*2053 _1924_
*2054 _1925_
*2055 _1926_
*2056 _1927_
*2057 _1928_
*2058 _1929_
*2059 _1930_
*2060 _1931_
*2061 _1932_
*2062 _1933_
*2063 _1934_
*2064 _1935_
*2065 _1936_
*2066 _1937_
*2067 _1938_
*2068 _1939_
*2069 _1940_
*2070 _1941_
*2071 _1942_
*2072 _1943_
*2073 _1944_
*2074 _1945_
*2075 _1946_
*2076 _1947_
*2077 _1948_
*2078 _1949_
*2079 _1950_
*2080 _1951_
*2081 _1952_
*2082 _1953_
*2083 _1954_
*2084 _1955_
*2085 _1956_
*2086 _1957_
*2087 _1958_
*2088 _1959_
*2089 _1960_
*2090 _1961_
*2091 _1962_
*2092 _1963_
*2093 _1964_
*2094 _1965_
*2095 _1966_
*2096 _1967_
*2097 _1968_
*2098 _1969_
*2099 _1970_
*2100 _1971_
*2101 _1972_
*2102 _1973_
*2103 _1974_
*2104 _1975_
*2105 _1976_
*2106 _1977_
*2107 _1978_
*2108 _1979_
*2109 _1980_
*2110 _1981_
*2111 _1982_
*2112 _1983_
*2113 _1984_
*2114 _1985_
*2115 _1986_
*2116 _1987_
*2117 _1988_
*2118 _1989_
*2119 _1990_
*2120 _1991_
*2121 _1992_
*2122 _1993_
*2123 _1994_
*2124 _1995_
*2125 _1996_
*2126 _1997_
*2127 _1998_
*2128 _1999_
*2129 _2000_
*2130 _2001_
*2131 _2002_
*2132 _2003_
*2133 _2004_
*2134 _2005_
*2135 _2006_
*2136 _2007_
*2137 _2008_
*2138 _2009_
*2139 _2010_
*2140 _2011_
*2141 _2012_
*2142 _2013_
*2143 _2014_
*2144 _2015_
*2145 _2016_
*2146 _2017_
*2147 _2018_
*2148 _2019_
*2149 _2020_
*2150 _2021_
*2151 _2022_
*2152 _2023_
*2153 _2024_
*2154 _2025_
*2155 _2026_
*2156 _2027_
*2157 _2028_
*2158 _2029_
*2159 _2030_
*2160 _2031_
*2161 _2032_
*2162 _2033_
*2163 _2034_
*2164 _2035_
*2165 _2036_
*2166 _2037_
*2167 _2038_
*2168 _2039_
*2169 _2040_
*2170 _2041_
*2171 _2042_
*2172 _2043_
*2173 _2044_
*2174 _2045_
*2175 _2046_
*2176 _2047_
*2177 _2048_
*2178 _2049_
*2179 _2050_
*2180 _2051_
*2181 _2052_
*2182 _2053_
*2183 _2054_
*2184 _2055_
*2185 _2056_
*2186 _2057_
*2187 _2058_
*2188 _2059_
*2189 _2060_
*2190 _2061_
*2191 _2062_
*2192 _2063_
*2193 _2064_
*2194 _2065_
*2195 _2066_
*2196 _2067_
*2197 _2068_
*2198 _2069_
*2199 _2070_
*2200 _2071_
*2201 _2072_
*2202 _2073_
*2203 _2074_
*2204 _2075_
*2205 _2076_
*2206 _2077_
*2207 _2078_
*2208 _2079_
*2209 _2080_
*2210 _2081_
*2211 _2082_
*2212 _2083_
*2213 _2084_
*2214 _2085_
*2215 _2086_
*2216 _2087_
*2217 _2088_
*2218 _2089_
*2219 _2090_
*2220 _2091_
*2221 _2092_
*2222 _2093_
*2223 _2094_
*2224 _2095_
*2225 _2096_
*2226 _2097_
*2227 _2098_
*2228 _2099_
*2229 _2100_
*2230 _2101_
*2231 _2102_
*2232 _2103_
*2233 _2104_
*2234 _2105_
*2235 _2106_
*2236 _2107_
*2237 _2108_
*2238 _2109_
*2239 _2110_
*2240 _2111_
*2241 _2112_
*2242 _2113_
*2243 _2114_
*2244 _2115_
*2245 _2116_
*2246 _2117_
*2247 _2118_
*2248 _2119_
*2249 _2120_
*2250 _2121_
*2251 _2122_
*2252 _2123_
*2253 _2124_
*2254 _2125_
*2255 _2126_
*2256 _2127_
*2257 _2128_
*2258 _2129_
*2259 _2130_
*2260 _2131_
*2261 _2132_
*2262 _2133_
*2263 _2134_
*2264 _2135_
*2265 _2136_
*2266 _2137_
*2267 _2138_
*2268 _2139_
*2269 _2140_
*2270 _2141_
*2271 _2142_
*2272 _2143_
*2273 _2144_
*2274 _2145_
*2275 _2146_
*2276 _2147_
*2277 clknet_0_osc_in
*2278 clknet_1_0_0_osc_in
*2279 clknet_1_1_0_osc_in
*2280 gen_ROM_instances\[0\]\.u_ROM\.PHI2
*2281 gen_ROM_instances\[0\]\.u_ROM\.TP_ROE
*2282 gen_ROM_instances\[0\]\.u_ROM\.areg\[0\]
*2283 gen_ROM_instances\[0\]\.u_ROM\.areg\[1\]
*2284 gen_ROM_instances\[0\]\.u_ROM\.areg\[2\]
*2285 gen_ROM_instances\[0\]\.u_ROM\.areg\[3\]
*2286 gen_ROM_instances\[0\]\.u_ROM\.areg\[4\]
*2287 gen_ROM_instances\[0\]\.u_ROM\.areg\[5\]
*2288 gen_ROM_instances\[0\]\.u_ROM\.areg\[6\]
*2289 gen_ROM_instances\[0\]\.u_ROM\.areg\[7\]
*2290 gen_ROM_instances\[0\]\.u_ROM\.areg_open
*2291 gen_ROM_instances\[0\]\.u_ROM\.b11
*2292 gen_ROM_instances\[0\]\.u_ROM\.b43
*2293 gen_ROM_instances\[0\]\.u_ROM\.b44