*SPEF "ieee 1481-1999"
*DESIGN "user_project_wrapper"
*DATE "11:11:11 Fri 11 11, 1111"
*VENDOR "OpenRCX"
*PROGRAM "Parallel Extraction"
*VERSION "1.0"
*DESIGN_FLOW "NAME_SCOPE LOCAL" "PIN_CAP NONE"
*DIVIDER /
*DELIMITER :
*BUS_DELIMITER []
*T_UNIT 1 NS
*C_UNIT 1 PF
*R_UNIT 1 OHM
*L_UNIT 1 HENRY

*NAME_MAP
*1 analog_io[0]
*2 analog_io[10]
*3 analog_io[11]
*4 analog_io[12]
*5 analog_io[13]
*6 analog_io[14]
*7 analog_io[15]
*8 analog_io[16]
*9 analog_io[17]
*10 analog_io[18]
*11 analog_io[19]
*12 analog_io[1]
*13 analog_io[20]
*14 analog_io[21]
*15 analog_io[22]
*16 analog_io[23]
*17 analog_io[24]
*18 analog_io[25]
*19 analog_io[26]
*20 analog_io[27]
*21 analog_io[28]
*22 analog_io[2]
*23 analog_io[3]
*24 analog_io[4]
*25 analog_io[5]
*26 analog_io[6]
*27 analog_io[7]
*28 analog_io[8]
*29 analog_io[9]
*30 io_in[0]
*31 io_in[10]
*32 io_in[11]
*33 io_in[12]
*34 io_in[13]
*35 io_in[14]
*36 io_in[15]
*37 io_in[16]
*38 io_in[17]
*39 io_in[18]
*40 io_in[19]
*41 io_in[1]
*42 io_in[20]
*43 io_in[21]
*44 io_in[22]
*45 io_in[23]
*46 io_in[24]
*47 io_in[25]
*48 io_in[26]
*49 io_in[27]
*50 io_in[28]
*51 io_in[29]
*52 io_in[2]
*53 io_in[30]
*54 io_in[31]
*55 io_in[32]
*56 io_in[33]
*57 io_in[34]
*58 io_in[35]
*59 io_in[36]
*60 io_in[37]
*61 io_in[3]
*62 io_in[4]
*63 io_in[5]
*64 io_in[6]
*65 io_in[7]
*66 io_in[8]
*67 io_in[9]
*69 carry_oen
*70 ia_oen
*71 bcd_oen
*72 ws_oen
*73 is_oen
*74 phi_oen
*76 sync_oen
*77 carry_bus
*78 ia_bus
*79 bcd_bus
*80 ws_bus
*81 is_bus
*82 phi1_out
*83 phi2_out
*84 start_out
*85 io_out[19]
*86 io_out[20]
*87 io_out[21]
*88 io_out[22]
*89 io_out[23]
*90 io_out[29]
*91 io_out[30]
*92 io_out[31]
*93 sync_bus
*94 la_data_in[0]
*95 la_data_in[100]
*96 la_data_in[101]
*97 la_data_in[102]
*98 la_data_in[103]
*99 la_data_in[104]
*100 la_data_in[105]
*101 la_data_in[106]
*102 la_data_in[107]
*103 la_data_in[108]
*104 la_data_in[109]
*105 la_data_in[10]
*106 la_data_in[110]
*107 la_data_in[111]
*108 la_data_in[112]
*109 la_data_in[113]
*110 la_data_in[114]
*111 la_data_in[115]
*112 la_data_in[116]
*113 la_data_in[117]
*114 la_data_in[118]
*115 la_data_in[119]
*116 la_data_in[11]
*117 la_data_in[120]
*118 la_data_in[121]
*119 la_data_in[122]
*120 la_data_in[123]
*121 la_data_in[124]
*122 la_data_in[125]
*123 la_data_in[126]
*124 la_data_in[127]
*125 la_data_in[12]
*126 la_data_in[13]
*127 la_data_in[14]
*128 la_data_in[15]
*129 la_data_in[16]
*130 la_data_in[17]
*131 la_data_in[18]
*132 la_data_in[19]
*133 la_data_in[1]
*134 la_data_in[20]
*135 la_data_in[21]
*136 la_data_in[22]
*137 la_data_in[23]
*138 la_data_in[24]
*139 la_data_in[25]
*140 la_data_in[26]
*141 la_data_in[27]
*142 la_data_in[28]
*143 la_data_in[29]
*144 la_data_in[2]
*145 la_data_in[30]
*146 la_data_in[31]
*147 la_data_in[32]
*148 la_data_in[33]
*149 la_data_in[34]
*150 la_data_in[35]
*151 la_data_in[36]
*152 la_data_in[37]
*153 la_data_in[38]
*154 la_data_in[39]
*155 la_data_in[3]
*156 la_data_in[40]
*157 la_data_in[41]
*158 la_data_in[42]
*159 la_data_in[43]
*160 la_data_in[44]
*161 la_data_in[45]
*162 la_data_in[46]
*163 la_data_in[47]
*164 la_data_in[48]
*165 la_data_in[49]
*166 la_data_in[4]
*167 la_data_in[50]
*168 la_data_in[51]
*169 la_data_in[52]
*170 la_data_in[53]
*171 la_data_in[54]
*172 la_data_in[55]
*173 la_data_in[56]
*174 la_data_in[57]
*175 la_data_in[58]
*176 la_data_in[59]
*177 la_data_in[5]
*178 la_data_in[60]
*179 la_data_in[61]
*180 la_data_in[62]
*181 la_data_in[63]
*182 la_data_in[64]
*183 la_data_in[65]
*184 la_data_in[66]
*185 la_data_in[67]
*186 la_data_in[68]
*187 la_data_in[69]
*188 la_data_in[6]
*189 la_data_in[70]
*190 la_data_in[71]
*191 la_data_in[72]
*192 la_data_in[73]
*193 la_data_in[74]
*194 la_data_in[75]
*195 la_data_in[76]
*196 la_data_in[77]
*197 la_data_in[78]
*198 la_data_in[79]
*199 la_data_in[7]
*200 la_data_in[80]
*201 la_data_in[81]
*202 la_data_in[82]
*203 la_data_in[83]
*204 la_data_in[84]
*205 la_data_in[85]
*206 la_data_in[86]
*207 la_data_in[87]
*208 la_data_in[88]
*209 la_data_in[89]
*210 la_data_in[8]
*211 la_data_in[90]
*212 la_data_in[91]
*213 la_data_in[92]
*214 la_data_in[93]
*215 la_data_in[94]
*216 la_data_in[95]
*217 la_data_in[96]
*218 la_data_in[97]
*219 la_data_in[98]
*220 la_data_in[99]
*221 la_data_in[9]
*222 la_data_out[100]
*223 la_data_out[64]
*224 la_data_out[65]
*225 la_data_out[66]
*226 la_data_out[67]
*227 la_data_out[68]
*228 la_data_out[69]
*229 la_data_out[70]
*230 la_data_out[71]
*231 la_data_out[72]
*232 la_data_out[73]
*233 la_data_out[74]
*234 dbg_arc_t1_out
*235 dbg_arc_t4_out
*236 dbg_arc_a1_out
*237 dbg_arc_b1_out
*238 la_data_out[79]
*239 la_data_out[80]
*240 la_data_out[81]
*241 dbg_ctc_state1_out
*242 dbg_ctc_kdn_out
*243 la_data_out[84]
*244 la_data_out[85]
*245 la_data_out[86]
*246 la_data_out[87]
*247 la_data_out[88]
*248 la_data_out[89]
*249 la_data_out[90]
*250 la_data_out[91]
*251 la_data_out[92]
*252 la_data_out[93]
*253 la_data_out[94]
*254 la_data_out[95]
*255 la_data_out[96]
*256 la_data_out[97]
*257 la_data_out[98]
*258 la_data_out[99]
*259 la_oenb[0]
*260 la_oenb[100]
*261 la_oenb[101]
*262 la_oenb[102]
*263 la_oenb[103]
*264 la_oenb[104]
*265 la_oenb[105]
*266 la_oenb[106]
*267 la_oenb[107]
*268 la_oenb[108]
*269 la_oenb[109]
*270 la_oenb[10]
*271 la_oenb[110]
*272 la_oenb[111]
*273 la_oenb[112]
*274 la_oenb[113]
*275 la_oenb[114]
*276 la_oenb[115]
*277 la_oenb[116]
*278 la_oenb[117]
*279 la_oenb[118]
*280 la_oenb[119]
*281 la_oenb[11]
*282 la_oenb[120]
*283 la_oenb[121]
*284 la_oenb[122]
*285 la_oenb[123]
*286 la_oenb[124]
*287 la_oenb[125]
*288 la_oenb[126]
*289 la_oenb[127]
*290 la_oenb[12]
*291 la_oenb[13]
*292 la_oenb[14]
*293 la_oenb[15]
*294 la_oenb[16]
*295 la_oenb[17]
*296 la_oenb[18]
*297 la_oenb[19]
*298 la_oenb[1]
*299 la_oenb[20]
*300 la_oenb[21]
*301 la_oenb[22]
*302 la_oenb[23]
*303 la_oenb[24]
*304 la_oenb[25]
*305 la_oenb[26]
*306 la_oenb[27]
*307 la_oenb[28]
*308 la_oenb[29]
*309 la_oenb[2]
*310 la_oenb[30]
*311 la_oenb[31]
*312 la_oenb[32]
*313 la_oenb[33]
*314 la_oenb[34]
*315 la_oenb[35]
*316 la_oenb[36]
*317 la_oenb[37]
*318 la_oenb[38]
*319 la_oenb[39]
*320 la_oenb[3]
*321 la_oenb[40]
*322 la_oenb[41]
*323 la_oenb[42]
*324 la_oenb[43]
*325 la_oenb[44]
*326 la_oenb[45]
*327 la_oenb[46]
*328 la_oenb[47]
*329 la_oenb[48]
*330 la_oenb[49]
*331 la_oenb[4]
*332 la_oenb[50]
*333 la_oenb[51]
*334 la_oenb[52]
*335 la_oenb[53]
*336 la_oenb[54]
*337 la_oenb[55]
*338 la_oenb[56]
*339 la_oenb[57]
*340 la_oenb[58]
*341 la_oenb[59]
*342 la_oenb[5]
*343 la_oenb[60]
*344 la_oenb[61]
*345 la_oenb[62]
*346 la_oenb[63]
*347 la_oenb[64]
*348 la_oenb[65]
*349 la_oenb[66]
*350 la_oenb[67]
*351 la_oenb[68]
*352 la_oenb[69]
*353 la_oenb[6]
*354 la_oenb[70]
*355 la_oenb[71]
*356 la_oenb[72]
*357 la_oenb[73]
*358 la_oenb[74]
*359 la_oenb[75]
*360 la_oenb[76]
*361 la_oenb[77]
*362 la_oenb[78]
*363 la_oenb[79]
*364 la_oenb[7]
*365 la_oenb[80]
*366 la_oenb[81]
*367 la_oenb[82]
*368 la_oenb[83]
*369 la_oenb[84]
*370 la_oenb[85]
*371 la_oenb[86]
*372 la_oenb[87]
*373 la_oenb[88]
*374 la_oenb[89]
*375 la_oenb[8]
*376 la_oenb[90]
*377 la_oenb[91]
*378 la_oenb[92]
*379 la_oenb[93]
*380 la_oenb[94]
*381 la_oenb[95]
*382 la_oenb[96]
*383 la_oenb[97]
*384 la_oenb[98]
*385 la_oenb[99]
*386 la_oenb[9]
*387 user_clock2
*388 sram_clk1
*397 wb_clk_i
*398 wb_rst_i
*399 wbs_adr_i[0]
*400 wbs_adr_i[10]
*401 wbs_adr_i[11]
*402 wbs_adr_i[12]
*403 wbs_adr_i[13]
*404 wbs_adr_i[14]
*405 wbs_adr_i[15]
*406 wbs_adr_i[16]
*407 wbs_adr_i[17]
*408 wbs_adr_i[18]
*409 wbs_adr_i[19]
*410 wbs_adr_i[1]
*411 wbs_adr_i[20]
*412 wbs_adr_i[21]
*413 wbs_adr_i[22]
*414 wbs_adr_i[23]
*415 wbs_adr_i[24]
*416 wbs_adr_i[25]
*417 wbs_adr_i[26]
*418 wbs_adr_i[27]
*419 wbs_adr_i[28]
*420 wbs_adr_i[29]
*421 wbs_adr_i[2]
*422 wbs_adr_i[30]
*423 wbs_adr_i[31]
*424 wbs_adr_i[3]
*425 wbs_adr_i[4]
*426 wbs_adr_i[5]
*427 wbs_adr_i[6]
*428 wbs_adr_i[7]
*429 wbs_adr_i[8]
*430 wbs_adr_i[9]
*431 wbs_cyc_i
*432 wbs_dat_i[0]
*433 wbs_dat_i[10]
*434 wbs_dat_i[11]
*435 wbs_dat_i[12]
*436 wbs_dat_i[13]
*437 wbs_dat_i[14]
*438 wbs_dat_i[15]
*439 wbs_dat_i[16]
*440 wbs_dat_i[17]
*441 wbs_dat_i[18]
*442 wbs_dat_i[19]
*443 wbs_dat_i[1]
*444 wbs_dat_i[20]
*445 wbs_dat_i[21]
*446 wbs_dat_i[22]
*447 wbs_dat_i[23]
*448 wbs_dat_i[24]
*449 wbs_dat_i[25]
*450 wbs_dat_i[26]
*451 wbs_dat_i[27]
*452 wbs_dat_i[28]
*453 wbs_dat_i[29]
*454 wbs_dat_i[2]
*455 wbs_dat_i[30]
*456 wbs_dat_i[31]
*457 wbs_dat_i[3]
*458 wbs_dat_i[4]
*459 wbs_dat_i[5]
*460 wbs_dat_i[6]
*461 wbs_dat_i[7]
*462 wbs_dat_i[8]
*463 wbs_dat_i[9]
*464 wbs_sel_i[0]
*465 wbs_sel_i[1]
*466 wbs_sel_i[2]
*467 wbs_sel_i[3]
*468 wbs_stb_i
*469 wbs_we_i
*470 dbg_dsbf_out\[4\]
*471 u_hp35_core

*PORTS
analog_io[0] I
analog_io[10] I
analog_io[11] I
analog_io[12] I
analog_io[13] I
analog_io[14] I
analog_io[15] I
analog_io[16] I
analog_io[17] I
analog_io[18] I
analog_io[19] I
analog_io[1] I
analog_io[20] I
analog_io[21] I
analog_io[22] I
analog_io[23] I
analog_io[24] I
analog_io[25] I
analog_io[26] I
analog_io[27] I
analog_io[28] I
analog_io[2] I
analog_io[3] I
analog_io[4] I
analog_io[5] I
analog_io[6] I
analog_io[7] I
analog_io[8] I
analog_io[9] I
io_in[0] I
io_in[10] I
io_in[11] I
io_in[12] I
io_in[13] I
io_in[14] I
io_in[15] I
io_in[16] I
io_in[17] I
io_in[18] I
io_in[19] I
io_in[1] I
io_in[20] I
io_in[21] I
io_in[22] I
io_in[23] I
io_in[24] I
io_in[25] I
io_in[26] I
io_in[27] I
io_in[28] I
io_in[29] I
io_in[2] I
io_in[30] I
io_in[31] I
io_in[32] I
io_in[33] I
io_in[34] I
io_in[35] I
io_in[36] I
io_in[37] I
io_in[3] I
io_in[4] I
io_in[5] I
io_in[6] I
io_in[7] I
io_in[8] I
io_in[9] I
io_oeb[0] O
io_oeb[10] O
io_oeb[11] O
io_oeb[12] O
io_oeb[13] O
io_oeb[14] O
io_oeb[15] O
io_oeb[16] O
io_oeb[17] O
io_oeb[18] O
io_oeb[19] O
io_oeb[1] O
io_oeb[20] O
io_oeb[21] O
io_oeb[22] O
io_oeb[23] O
io_oeb[24] O
io_oeb[25] O
io_oeb[26] O
io_oeb[27] O
io_oeb[28] O
io_oeb[29] O
io_oeb[2] O
io_oeb[30] O
io_oeb[31] O
io_oeb[32] O
io_oeb[33] O
io_oeb[34] O
io_oeb[35] O
io_oeb[36] O
io_oeb[37] O
io_oeb[3] O
io_oeb[4] O
io_oeb[5] O
io_oeb[6] O
io_oeb[7] O
io_oeb[8] O
io_oeb[9] O
io_out[0] O
io_out[10] O
io_out[11] O
io_out[12] O
io_out[13] O
io_out[14] O
io_out[15] O
io_out[16] O
io_out[17] O
io_out[18] O
io_out[19] O
io_out[1] O
io_out[20] O
io_out[21] O
io_out[22] O
io_out[23] O
io_out[24] O
io_out[25] O
io_out[26] O
io_out[27] O
io_out[28] O
io_out[29] O
io_out[2] O
io_out[30] O
io_out[31] O
io_out[32] O
io_out[33] O
io_out[34] O
io_out[35] O
io_out[36] O
io_out[37] O
io_out[3] O
io_out[4] O
io_out[5] O
io_out[6] O
io_out[7] O
io_out[8] O
io_out[9] O
la_data_in[0] I
la_data_in[100] I
la_data_in[101] I
la_data_in[102] I
la_data_in[103] I
la_data_in[104] I
la_data_in[105] I
la_data_in[106] I
la_data_in[107] I
la_data_in[108] I
la_data_in[109] I
la_data_in[10] I
la_data_in[110] I
la_data_in[111] I
la_data_in[112] I
la_data_in[113] I
la_data_in[114] I
la_data_in[115] I
la_data_in[116] I
la_data_in[117] I
la_data_in[118] I
la_data_in[119] I
la_data_in[11] I
la_data_in[120] I
la_data_in[121] I
la_data_in[122] I
la_data_in[123] I
la_data_in[124] I
la_data_in[125] I
la_data_in[126] I
la_data_in[127] I
la_data_in[12] I
la_data_in[13] I
la_data_in[14] I
la_data_in[15] I
la_data_in[16] I
la_data_in[17] I
la_data_in[18] I
la_data_in[19] I
la_data_in[1] I
la_data_in[20] I
la_data_in[21] I
la_data_in[22] I
la_data_in[23] I
la_data_in[24] I
la_data_in[25] I
la_data_in[26] I
la_data_in[27] I
la_data_in[28] I
la_data_in[29] I
la_data_in[2] I
la_data_in[30] I
la_data_in[31] I
la_data_in[32] I
la_data_in[33] I
la_data_in[34] I
la_data_in[35] I
la_data_in[36] I
la_data_in[37] I
la_data_in[38] I
la_data_in[39] I
la_data_in[3] I
la_data_in[40] I
la_data_in[41] I
la_data_in[42] I
la_data_in[43] I
la_data_in[44] I
la_data_in[45] I
la_data_in[46] I
la_data_in[47] I
la_data_in[48] I
la_data_in[49] I
la_data_in[4] I
la_data_in[50] I
la_data_in[51] I
la_data_in[52] I
la_data_in[53] I
la_data_in[54] I
la_data_in[55] I
la_data_in[56] I
la_data_in[57] I
la_data_in[58] I
la_data_in[59] I
la_data_in[5] I
la_data_in[60] I
la_data_in[61] I
la_data_in[62] I
la_data_in[63] I
la_data_in[64] I
la_data_in[65] I
la_data_in[66] I
la_data_in[67] I
la_data_in[68] I
la_data_in[69] I
la_data_in[6] I
la_data_in[70] I
la_data_in[71] I
la_data_in[72] I
la_data_in[73] I
la_data_in[74] I
la_data_in[75] I
la_data_in[76] I
la_data_in[77] I
la_data_in[78] I
la_data_in[79] I
la_data_in[7] I
la_data_in[80] I
la_data_in[81] I
la_data_in[82] I
la_data_in[83] I
la_data_in[84] I
la_data_in[85] I
la_data_in[86] I
la_data_in[87] I
la_data_in[88] I
la_data_in[89] I
la_data_in[8] I
la_data_in[90] I
la_data_in[91] I
la_data_in[92] I
la_data_in[93] I
la_data_in[94] I
la_data_in[95] I
la_data_in[96] I
la_data_in[97] I
la_data_in[98] I
la_data_in[99] I
la_data_in[9] I
la_data_out[0] O
la_data_out[100] O
la_data_out[101] O
la_data_out[102] O
la_data_out[103] O
la_data_out[104] O
la_data_out[105] O
la_data_out[106] O
la_data_out[107] O
la_data_out[108] O
la_data_out[109] O
la_data_out[10] O
la_data_out[110] O
la_data_out[111] O
la_data_out[112] O
la_data_out[113] O
la_data_out[114] O
la_data_out[115] O
la_data_out[116] O
la_data_out[117] O
la_data_out[118] O
la_data_out[119] O
la_data_out[11] O
la_data_out[120] O
la_data_out[121] O
la_data_out[122] O
la_data_out[123] O
la_data_out[124] O
la_data_out[125] O
la_data_out[126] O
la_data_out[127] O
la_data_out[12] O
la_data_out[13] O
la_data_out[14] O
la_data_out[15] O
la_data_out[16] O
la_data_out[17] O
la_data_out[18] O
la_data_out[19] O
la_data_out[1] O
la_data_out[20] O
la_data_out[21] O
la_data_out[22] O
la_data_out[23] O
la_data_out[24] O
la_data_out[25] O
la_data_out[26] O
la_data_out[27] O
la_data_out[28] O
la_data_out[29] O
la_data_out[2] O
la_data_out[30] O
la_data_out[31] O
la_data_out[32] O
la_data_out[33] O
la_data_out[34] O
la_data_out[35] O
la_data_out[36] O
la_data_out[37] O
la_data_out[38] O
la_data_out[39] O
la_data_out[3] O
la_data_out[40] O
la_data_out[41] O
la_data_out[42] O
la_data_out[43] O
la_data_out[44] O
la_data_out[45] O
la_data_out[46] O
la_data_out[47] O
la_data_out[48] O
la_data_out[49] O
la_data_out[4] O
la_data_out[50] O
la_data_out[51] O
la_data_out[52] O
la_data_out[53] O
la_data_out[54] O
la_data_out[55] O
la_data_out[56] O
la_data_out[57] O
la_data_out[58] O
la_data_out[59] O
la_data_out[5] O
la_data_out[60] O
la_data_out[61] O
la_data_out[62] O
la_data_out[63] O
la_data_out[64] O
la_data_out[65] O
la_data_out[66] O
la_data_out[67] O
la_data_out[68] O
la_data_out[69] O
la_data_out[6] O
la_data_out[70] O
la_data_out[71] O
la_data_out[72] O
la_data_out[73] O
la_data_out[74] O
la_data_out[75] O
la_data_out[76] O
la_data_out[77] O
la_data_out[78] O
la_data_out[79] O
la_data_out[7] O
la_data_out[80] O
la_data_out[81] O
la_data_out[82] O
la_data_out[83] O
la_data_out[84] O
la_data_out[85] O
la_data_out[86] O
la_data_out[87] O
la_data_out[88] O
la_data_out[89] O
la_data_out[8] O
la_data_out[90] O
la_data_out[91] O
la_data_out[92] O
la_data_out[93] O
la_data_out[94] O
la_data_out[95] O
la_data_out[96] O
la_data_out[97] O
la_data_out[98] O
la_data_out[99] O
la_data_out[9] O
la_oenb[0] I
la_oenb[100] I
la_oenb[101] I
la_oenb[102] I
la_oenb[103] I
la_oenb[104] I
la_oenb[105] I
la_oenb[106] I
la_oenb[107] I
la_oenb[108] I
la_oenb[109] I
la_oenb[10] I
la_oenb[110] I
la_oenb[111] I
la_oenb[112] I
la_oenb[113] I
la_oenb[114] I
la_oenb[115] I
la_oenb[116] I
la_oenb[117] I
la_oenb[118] I
la_oenb[119] I
la_oenb[11] I
la_oenb[120] I
la_oenb[121] I
la_oenb[122] I
la_oenb[123] I
la_oenb[124] I
la_oenb[125] I
la_oenb[126] I
la_oenb[127] I
la_oenb[12] I
la_oenb[13] I
la_oenb[14] I
la_oenb[15] I
la_oenb[16] I
la_oenb[17] I
la_oenb[18] I
la_oenb[19] I
la_oenb[1] I
la_oenb[20] I
la_oenb[21] I
la_oenb[22] I
la_oenb[23] I
la_oenb[24] I
la_oenb[25] I
la_oenb[26] I
la_oenb[27] I
la_oenb[28] I
la_oenb[29] I
la_oenb[2] I
la_oenb[30] I
la_oenb[31] I
la_oenb[32] I
la_oenb[33] I
la_oenb[34] I
la_oenb[35] I
la_oenb[36] I
la_oenb[37] I
la_oenb[38] I
la_oenb[39] I
la_oenb[3] I
la_oenb[40] I
la_oenb[41] I
la_oenb[42] I
la_oenb[43] I
la_oenb[44] I
la_oenb[45] I
la_oenb[46] I
la_oenb[47] I
la_oenb[48] I
la_oenb[49] I
la_oenb[4] I
la_oenb[50] I
la_oenb[51] I
la_oenb[52] I
la_oenb[53] I
la_oenb[54] I
la_oenb[55] I
la_oenb[56] I
la_oenb[57] I
la_oenb[58] I
la_oenb[59] I
la_oenb[5] I
la_oenb[60] I
la_oenb[61] I
la_oenb[62] I
la_oenb[63] I
la_oenb[64] I
la_oenb[65] I
la_oenb[66] I
la_oenb[67] I
la_oenb[68] I
la_oenb[69] I
la_oenb[6] I
la_oenb[70] I
la_oenb[71] I
la_oenb[72] I
la_oenb[73] I
la_oenb[74] I
la_oenb[75] I
la_oenb[76] I
la_oenb[77] I
la_oenb[78] I
la_oenb[79] I
la_oenb[7] I
la_oenb[80] I
la_oenb[81] I
la_oenb[82] I
la_oenb[83] I
la_oenb[84] I
la_oenb[85] I
la_oenb[86] I
la_oenb[87] I
la_oenb[88] I
la_oenb[89] I
la_oenb[8] I
la_oenb[90] I
la_oenb[91] I
la_oenb[92] I
la_oenb[93] I
la_oenb[94] I
la_oenb[95] I
la_oenb[96] I
la_oenb[97] I
la_oenb[98] I
la_oenb[99] I
la_oenb[9] I
user_clock2 I
user_irq[0] O
user_irq[1] O
user_irq[2] O
wb_clk_i I
wb_rst_i I
wbs_ack_o O
wbs_adr_i[0] I
wbs_adr_i[10] I
wbs_adr_i[11] I
wbs_adr_i[12] I
wbs_adr_i[13] I
wbs_adr_i[14] I
wbs_adr_i[15] I
wbs_adr_i[16] I
wbs_adr_i[17] I
wbs_adr_i[18] I
wbs_adr_i[19] I
wbs_adr_i[1] I
wbs_adr_i[20] I
wbs_adr_i[21] I
wbs_adr_i[22] I
wbs_adr_i[23] I
wbs_adr_i[24] I
wbs_adr_i[25] I
wbs_adr_i[26] I
wbs_adr_i[27] I
wbs_adr_i[28] I
wbs_adr_i[29] I
wbs_adr_i[2] I
wbs_adr_i[30] I
wbs_adr_i[31] I
wbs_adr_i[3] I
wbs_adr_i[4] I
wbs_adr_i[5] I
wbs_adr_i[6] I
wbs_adr_i[7] I
wbs_adr_i[8] I
wbs_adr_i[9] I
wbs_cyc_i I
wbs_dat_i[0] I
wbs_dat_i[10] I
wbs_dat_i[11] I
wbs_dat_i[12] I
wbs_dat_i[13] I
wbs_dat_i[14] I
wbs_dat_i[15] I
wbs_dat_i[16] I
wbs_dat_i[17] I
wbs_dat_i[18] I
wbs_dat_i[19] I
wbs_dat_i[1] I
wbs_dat_i[20] I
wbs_dat_i[21] I
wbs_dat_i[22] I
wbs_dat_i[23] I
wbs_dat_i[24] I
wbs_dat_i[25] I
wbs_dat_i[26] I
wbs_dat_i[27] I
wbs_dat_i[28] I
wbs_dat_i[29] I
wbs_dat_i[2] I
wbs_dat_i[30] I
wbs_dat_i[31] I
wbs_dat_i[3] I
wbs_dat_i[4] I
wbs_dat_i[5] I
wbs_dat_i[6] I
wbs_dat_i[7] I
wbs_dat_i[8] I
wbs_dat_i[9] I
wbs_dat_o[0] O
wbs_dat_o[10] O
wbs_dat_o[11] O
wbs_dat_o[12] O
wbs_dat_o[13] O
wbs_dat_o[14] O
wbs_dat_o[15] O
wbs_dat_o[16] O
wbs_dat_o[17] O
wbs_dat_o[18] O
wbs_dat_o[19] O
wbs_dat_o[1] O
wbs_dat_o[20] O
wbs_dat_o[21] O
wbs_dat_o[22] O
wbs_dat_o[23] O
wbs_dat_o[24] O
wbs_dat_o[25] O
wbs_dat_o[26] O
wbs_dat_o[27] O
wbs_dat_o[28] O
wbs_dat_o[29] O
wbs_dat_o[2] O
wbs_dat_o[30] O
wbs_dat_o[31] O
wbs_dat_o[3] O
wbs_dat_o[4] O
wbs_dat_o[5] O
wbs_dat_o[6] O
wbs_dat_o[7] O
wbs_dat_o[8] O
wbs_dat_o[9] O
wbs_sel_i[0] I
wbs_sel_i[1] I
wbs_sel_i[2] I
wbs_sel_i[3] I
wbs_stb_i I
wbs_we_i I

*D_NET *31 0.260812
*CONN
*P io_in[10] I
*I *471:carry_in I *D hp35_core
*CAP
1 io_in[10] 0.0011627
2 *471:carry_in 8.20467e-05
3 *31:18 0.00252948
4 *31:16 0.00253249
5 *31:14 0.0619047
6 *31:13 0.0618196
7 *31:11 0.064809
8 *31:10 0.0659717
*RES
1 io_in[10] *31:10 18.954 
2 *31:10 *31:11 1758.82 
3 *31:11 *31:13 4.5 
4 *31:13 *31:14 1744.66 
5 *31:14 *31:16 2.41823 
6 *31:16 *31:18 68.883 
7 *31:18 *471:carry_in 2.33274 
*END

*D_NET *32 0.288444
*CONN
*P io_in[11] I
*I *471:ia_in I *D hp35_core
*CAP
1 io_in[11] 0.00107953
2 *471:ia_in 8.20467e-05
3 *32:18 0.00260108
4 *32:16 0.00262527
5 *32:14 0.0735796
6 *32:13 0.0734734
7 *32:11 0.0669615
8 *32:10 0.0680411
*RES
1 io_in[11] *32:10 14.8015 
2 *32:10 *32:11 1817.05 
3 *32:11 *32:13 4.5 
4 *32:13 *32:14 2073.54 
5 *32:14 *32:16 2.98005 
6 *32:16 *32:18 68.883 
7 *32:18 *471:ia_in 2.33274 
*END

*D_NET *33 0.316912
*CONN
*P io_in[12] I
*I *471:bcd_in I *D hp35_core
*CAP
1 io_in[12] 0.00122364
2 *471:bcd_in 8.20467e-05
3 *33:18 0.00260184
4 *33:16 0.00256731
5 *33:14 0.0879202
6 *33:13 0.0878727
7 *33:11 0.0667102
8 *33:10 0.0679339
*RES
1 io_in[12] *33:10 18.8447 
2 *33:10 *33:11 1856.43 
3 *33:11 *33:13 4.5 
4 *33:13 *33:14 2393.7 
5 *33:14 *33:16 1.29461 
6 *33:16 *33:18 68.883 
7 *33:18 *471:bcd_in 2.33274 
*END

*D_NET *34 0.34356
*CONN
*P io_in[13] I
*I *471:ws_in I *D hp35_core
*CAP
1 io_in[13] 0.00101224
2 *471:ws_in 4.25268e-05
3 *34:14 0.102489
4 *34:13 0.102447
5 *34:11 0.0682788
6 *34:10 0.069291
*RES
1 io_in[13] *34:10 14.8015 
2 *34:10 *34:11 1900.24 
3 *34:11 *34:13 4.5 
4 *34:13 *34:14 2790.87 
5 *34:14 *471:ws_in 1.20912 
*END

*D_NET *35 0.363712
*CONN
*P io_in[14] I
*I *471:is_in I *D hp35_core
*CAP
1 io_in[14] 0.00087
2 *471:is_in 0.000101807
3 *35:18 0.00262084
4 *35:16 0.00270431
5 *35:14 0.108293
6 *35:13 0.108108
7 *35:11 0.0700719
8 *35:10 0.0709419
*RES
1 io_in[14] *35:10 11.0642 
2 *35:10 *35:11 1950.16 
3 *35:11 *35:13 4.5 
4 *35:13 *35:14 3051.04 
5 *35:14 *35:16 5.22729 
6 *35:16 *35:18 68.883 
7 *35:18 *471:is_in 2.89455 
*END

*D_NET *36 0.485263
*CONN
*P io_in[15] I
*I *471:phi1_in I *D hp35_core
*CAP
1 io_in[15] 0.00071616
2 *471:phi1_in 0.000318579
3 *36:14 0.0306223
4 *36:13 0.0303037
5 *36:11 0.134616
6 *36:10 0.134616
7 *36:8 0.00960763
8 *36:7 0.0103238
9 *36:8 *74:20 0
10 *36:8 *82:14 0.0248032
11 *36:14 *37:14 0.000503191
12 *36:14 *82:8 0.108539
13 *36:14 *83:8 0.00029221
14 *36:14 *161:14 0
*RES
1 io_in[15] *36:7 24.7252 
2 *36:7 *36:8 375.081 
3 *36:8 *36:10 4.5 
4 *36:10 *36:11 3796.41 
5 *36:11 *36:13 4.5 
6 *36:13 *36:14 1245.25 
7 *36:14 *471:phi1_in 13.0982 
*END

*D_NET *37 0.49663
*CONN
*P io_in[16] I
*I *471:phi2_in I *D hp35_core
*CAP
1 io_in[16] 0.000722971
2 *471:phi2_in 0.000355103
3 *37:14 0.0140961
4 *37:13 0.013741
5 *37:11 0.13466
6 *37:10 0.13466
7 *37:8 0.00332008
8 *37:7 0.00404305
9 *37:8 *74:20 0
10 *37:14 *82:8 0.0988262
11 *37:14 *83:8 0.0917028
12 *36:14 *37:14 0.000503191
*RES
1 io_in[16] *37:7 24.7252 
2 *37:7 *37:8 92.233 
3 *37:8 *37:10 4.5 
4 *37:10 *37:11 3797.24 
5 *37:11 *37:13 4.5 
6 *37:13 *37:14 1113.26 
7 *37:14 *471:phi2_in 13.9287 
*END

*D_NET *38 0.378714
*CONN
*P io_in[17] I
*I *471:PWO I *D hp35_core
*CAP
1 io_in[17] 0.000701555
2 *471:PWO 0.000101807
3 *38:15 0.00258495
4 *38:13 0.00262889
5 *38:11 0.118798
6 *38:10 0.118652
7 *38:8 0.0265943
8 *38:7 0.0272959
9 *38:8 *84:10 0.0124668
10 *38:8 *87:11 0.0347897
11 *38:8 *88:13 0.0340993
*RES
1 io_in[17] *38:7 24.31 
2 *38:7 *38:8 1143.76 
3 *38:8 *38:10 4.5 
4 *38:10 *38:11 3232.09 
5 *38:11 *38:13 4.10367 
6 *38:13 *38:15 68.883 
7 *38:15 *471:PWO 2.89455 
*END

*D_NET *46 0.528112
*CONN
*P io_in[24] I
*I *471:COL[0] I *D hp35_core
*CAP
1 io_in[24] 0.000845002
2 *471:COL[0] 0.000681075
3 *46:11 0.0312133
4 *46:10 0.0305322
5 *46:8 0.0740938
6 *46:7 0.0749388
7 *46:8 io_out[29] 0.000242273
8 *46:8 io_out[30] 0
9 *46:8 io_out[31] 0.00015216
10 *46:8 *47:8 0.178042
11 *46:11 *47:11 0.137371
*RES
1 io_in[24] *46:7 6.03264 
2 *46:7 *46:8 3187.02 
3 *46:8 *46:10 4.5 
4 *46:10 *46:11 1446.02 
5 *46:11 *471:COL[0] 22.5757 
*END

*D_NET *47 0.69121
*CONN
*P io_in[25] I
*I *471:COL[1] I *D hp35_core
*CAP
1 io_in[25] 0.00087756
2 *471:COL[1] 0.000653276
3 *47:11 0.0100771
4 *47:10 0.00942387
5 *47:8 0.0284445
6 *47:7 0.029322
7 *47:8 *48:8 0.158315
8 *47:11 *48:11 0.138683
9 *46:8 *47:8 0.178042
10 *46:11 *47:11 0.137371
*RES
1 io_in[25] *47:7 6.10913 
2 *47:7 *47:8 2868.53 
3 *47:8 *47:10 4.5 
4 *47:10 *47:11 1459.89 
5 *47:11 *471:COL[1] 22.1604 
*END

*D_NET *48 0.649648
*CONN
*P io_in[26] I
*I *471:COL[2] I *D hp35_core
*CAP
1 io_in[26] 0.000968577
2 *471:COL[2] 0.000572559
3 *48:11 0.0101479
4 *48:10 0.00957532
5 *48:8 0.0257769
6 *48:7 0.0267455
7 *48:8 *49:8 0.138604
8 *48:11 *49:11 0.140259
9 *47:8 *48:8 0.158315
10 *47:11 *48:11 0.138683
*RES
1 io_in[26] *48:7 6.18562 
2 *48:7 *48:8 2550.86 
3 *48:8 *48:10 4.5 
4 *48:10 *48:11 1476.52 
5 *48:11 *471:COL[2] 20.0597 
*END

*D_NET *49 0.607462
*CONN
*P io_in[27] I
*I *471:COL[3] I *D hp35_core
*CAP
1 io_in[27] 0.000942676
2 *471:COL[3] 0.000610403
3 *49:11 0.01017
4 *49:10 0.00955958
5 *49:8 0.0231142
6 *49:7 0.0240569
7 *49:8 *50:8 0.118824
8 *49:11 *50:11 0.141321
9 *48:8 *49:8 0.138604
10 *48:11 *49:11 0.140259
*RES
1 io_in[27] *49:7 6.26211 
2 *49:7 *49:8 2233.19 
3 *49:8 *49:10 4.5 
4 *49:10 *49:11 1487.62 
5 *49:11 *471:COL[3] 21.3299 
*END

*D_NET *50 0.411109
*CONN
*P io_in[28] I
*I *471:COL[4] I *D hp35_core
*CAP
1 io_in[28] 0.000975234
2 *471:COL[4] 0.000588967
3 *50:11 0.0324939
4 *50:10 0.0319049
5 *50:8 0.0420125
6 *50:7 0.0429878
7 *49:8 *50:8 0.118824
8 *49:11 *50:11 0.141321
*RES
1 io_in[28] *50:7 6.3386 
2 *50:7 *50:8 1914.69 
3 *50:8 *50:10 4.5 
4 *50:10 *50:11 1501.48 
5 *50:11 *471:COL[4] 20.9147 
*END

*D_NET *67 0.231722
*CONN
*P io_in[9] I
*I *471:sync_in I *D hp35_core
*CAP
1 io_in[9] 0.000997638
2 *471:sync_in 8.20467e-05
3 *67:18 0.00252948
4 *67:16 0.00259177
5 *67:14 0.0506191
6 *67:13 0.0504748
7 *67:11 0.0617149
8 *67:10 0.0627126
*RES
1 io_in[9] *67:10 14.3862 
2 *67:10 *67:11 1717.22 
3 *67:11 *67:13 4.5 
4 *67:13 *67:14 1424.5 
5 *67:14 *67:16 4.10367 
6 *67:16 *67:18 68.883 
7 *67:18 *471:sync_in 2.33274 
*END

*D_NET *69 0.267697
*CONN
*P io_oeb[10] O
*I *471:carry_oen O *D hp35_core
*CAP
1 io_oeb[10] 0.000924612
2 *471:carry_oen 8.20467e-05
3 *69:10 0.0635122
4 *69:9 0.0625876
5 *69:7 0.0702544
6 *69:5 0.0703364
*RES
1 *471:carry_oen *69:5 2.33274 
2 *69:5 *69:7 1981.96 
3 *69:7 *69:9 4.5 
4 *69:9 *69:10 1742.18 
5 *69:10 io_oeb[10] 12.31 
*END

*D_NET *70 0.296942
*CONN
*P io_oeb[11] O
*I *471:ia_oen O *D hp35_core
*CAP
1 io_oeb[11] 0.00108718
2 *471:ia_oen 2.27669e-05
3 *70:14 0.066803
4 *70:13 0.0657158
5 *70:11 0.0791525
6 *70:9 0.079198
7 *70:7 0.00249297
8 *70:5 0.0024702
*RES
1 *471:ia_oen *70:5 0.647305 
2 *70:5 *70:7 68.883 
3 *70:7 *70:9 1.29461 
4 *70:9 *70:11 2233.41 
5 *70:11 *70:13 4.5 
6 *70:13 *70:14 1783.77 
7 *70:14 io_oeb[11] 16.8778 
*END

*D_NET *71 0.330565
*CONN
*P io_oeb[12] O
*I *471:bcd_oen O *D hp35_core
*CAP
1 io_oeb[12] 0.00102036
2 *471:bcd_oen 8.20467e-05
3 *71:14 0.0684904
4 *71:13 0.0674701
5 *71:11 0.0940758
6 *71:9 0.0942611
7 *71:7 0.00263428
8 *71:5 0.00253105
*RES
1 *471:bcd_oen *71:5 2.33274 
2 *71:5 *71:7 68.883 
3 *71:7 *71:9 5.22729 
4 *71:9 *71:11 2562.29 
5 *71:11 *71:13 4.5 
6 *71:13 *71:14 1831.47 
7 *71:14 io_oeb[12] 13.0312 
*END

*D_NET *72 0.34656
*CONN
*P io_oeb[13] O
*I *471:ws_oen O *D hp35_core
*CAP
1 io_oeb[13] 0.00113497
2 *471:ws_oen 0.000101807
3 *72:14 0.0684965
4 *72:13 0.0673615
5 *72:11 0.102149
6 *72:9 0.102234
7 *72:7 0.00253249
8 *72:5 0.00254924
*RES
1 *471:ws_oen *72:5 2.89455 
2 *72:5 *72:7 68.883 
3 *72:7 *72:9 2.41823 
4 *72:9 *72:11 2882.45 
5 *72:11 *72:13 4.5 
6 *72:13 *72:14 1875.28 
7 *72:14 io_oeb[13] 16.4625 
*END

*D_NET *73 0.372286
*CONN
*P io_oeb[14] O
*I *471:is_oen O *D hp35_core
*CAP
1 io_oeb[14] 0.000924612
2 *471:is_oen 0.000101807
3 *73:14 0.0697756
4 *73:13 0.068851
5 *73:11 0.113793
6 *73:9 0.113818
7 *73:7 0.00247321
8 *73:5 0.00254924
*RES
1 *471:is_oen *73:5 2.89455 
2 *73:5 *73:7 68.883 
3 *73:7 *73:9 0.732798 
4 *73:9 *73:11 3211.33 
5 *73:11 *73:13 4.5 
6 *73:13 *73:14 1916.88 
7 *73:14 io_oeb[14] 12.31 
*END

*D_NET *74 0.447579
*CONN
*P io_oeb[16] O
*P io_oeb[15] O
*I *471:phi_oen O *D hp35_core
*CAP
1 io_oeb[16] 0.000570108
2 io_oeb[15] 0.000570108
3 *471:phi_oen 0.000405255
4 *74:20 0.0146459
5 *74:19 0.0140758
6 *74:17 0.000903579
7 *74:11 0.139885
8 *74:10 0.139552
9 *74:8 0.0238972
10 *74:7 0.0243024
11 *74:7 *157:11 0
12 *74:8 *83:8 0.0887716
13 *74:20 *82:14 0
14 *74:20 *83:14 0
15 *36:8 *74:20 0
16 *37:8 *74:20 0
*RES
1 *471:phi_oen *74:7 14.7592 
2 *74:7 *74:8 989.027 
3 *74:8 *74:10 4.5 
4 *74:10 *74:11 3797.65 
5 *74:11 *74:17 17.7898 
6 *74:17 *74:19 4.5 
7 *74:19 *74:20 391.164 
8 *74:20 io_oeb[15] 20.5727 
9 *74:17 io_oeb[16] 16.0727 
*END

*D_NET *76 0.241889
*CONN
*P io_oeb[9] O
*I *471:sync_oen O *D hp35_core
*CAP
1 io_oeb[9] 0.00108527
2 *471:sync_oen 8.20467e-05
3 *76:14 0.0621796
4 *76:13 0.0610943
5 *76:11 0.0561703
6 *76:9 0.0562356
7 *76:7 0.00251273
8 *76:5 0.00252948
*RES
1 *471:sync_oen *76:5 2.33274 
2 *76:5 *76:7 68.883 
3 *76:7 *76:9 1.85642 
4 *76:9 *76:11 1584.79 
5 *76:11 *76:13 4.5 
6 *76:13 *76:14 1700.58 
7 *76:14 io_oeb[9] 16.8778 
*END

*D_NET *77 0.268092
*CONN
*P io_out[10] O
*I *471:carry_bus O *D hp35_core
*CAP
1 io_out[10] 0.00116889
2 *471:carry_bus 8.20467e-05
3 *77:14 0.0665489
4 *77:13 0.06538
5 *77:11 0.0648034
6 *77:9 0.0649675
7 *77:7 0.00261153
8 *77:5 0.00252948
*RES
1 *471:carry_bus *77:5 2.33274 
2 *77:5 *77:7 68.883 
3 *77:7 *77:9 4.66548 
4 *77:9 *77:11 1828.95 
5 *77:11 *77:13 4.5 
6 *77:13 *77:14 1774.35 
7 *77:14 io_out[10] 16.2002 
*END

*D_NET *78 0.2926
*CONN
*P io_out[11] O
*I *471:ia_bus O *D hp35_core
*CAP
1 io_out[11] 0.000944638
2 *471:ia_bus 8.20467e-05
3 *78:14 0.0672833
4 *78:13 0.0663387
5 *78:11 0.0764614
6 *78:9 0.0764872
7 *78:7 0.00247321
8 *78:5 0.00252948
*RES
1 *471:ia_bus *78:5 2.33274 
2 *78:5 *78:7 68.883 
3 *78:7 *78:9 0.732798 
4 *78:9 *78:11 2157.83 
5 *78:11 *78:13 4.5 
6 *78:13 *78:14 1800.41 
7 *78:14 io_out[11] 11.0642 
*END

*D_NET *79 0.315037
*CONN
*P io_out[12] O
*I *471:bcd_bus O *D hp35_core
*CAP
1 io_out[12] 0.00104145
2 *471:bcd_bus 4.25268e-05
3 *79:10 0.0672223
4 *79:9 0.0661808
5 *79:7 0.0902539
6 *79:5 0.0902965
*RES
1 *471:bcd_bus *79:5 1.20912 
2 *79:5 *79:7 2546.71 
3 *79:7 *79:9 4.5 
4 *79:9 *79:10 1842.01 
5 *79:10 io_out[12] 15.632 
*END

*D_NET *80 0.342075
*CONN
*P io_out[13] O
*I *471:ws_bus O *D hp35_core
*CAP
1 io_out[13] 0.000910007
2 *471:ws_bus 0.000101807
3 *80:14 0.0688762
4 *80:13 0.0679662
5 *80:11 0.099448
6 *80:9 0.0996121
7 *80:7 0.00261153
8 *80:5 0.00254924
*RES
1 *471:ws_bus *80:5 2.89455 
2 *80:5 *80:7 68.883 
3 *80:7 *80:9 4.66548 
4 *80:9 *80:11 2806.46 
5 *80:11 *80:13 4.5 
6 *80:13 *80:14 1891.92 
7 *80:14 io_out[13] 11.8947 
*END

*D_NET *81 0.367897
*CONN
*P io_out[14] O
*I *471:is_bus O *D hp35_core
*CAP
1 io_out[14] 0.00102685
2 *471:is_bus 0.000101807
3 *81:14 0.0704889
4 *81:13 0.0694621
5 *81:11 0.110805
6 *81:9 0.11091
7 *81:7 0.00255225
8 *81:5 0.00254924
*RES
1 *471:is_bus *81:5 2.89455 
2 *81:5 *81:7 68.883 
3 *81:7 *81:9 2.98005 
4 *81:9 *81:11 3127.03 
5 *81:11 *81:13 4.5 
6 *81:13 *81:14 1933.52 
7 *81:14 io_out[14] 15.2168 
*END

*D_NET *82 0.545816
*CONN
*P io_out[15] O
*I *471:phi1_out O *D hp35_core
*CAP
1 io_out[15] 0.000701555
2 *471:phi1_out 0.000340248
3 *82:14 0.0061962